32082237
  -OEChem-11301217442D

 45 45  0     0  0  0  0  0  0999 V2000
    2.0000   -3.1830    0.0000 Cl  0  0  0  0  0  0  0  0  0  0  0  0
    3.7320   -4.1830    0.0000 Cl  0  0  0  0  0  0  0  0  0  0  0  0
    5.4641   -0.1830    0.0000 O   0  0  0  0  0  0  0  0  0  0  0  0
    6.3301    3.3170    0.0000 N   0  3  0  0  0  0  0  0  0  0  0  0
    4.5981    1.3170    0.0000 N   0  0  0  0  0  0  0  0  0  0  0  0
    3.7320   -0.1830    0.0000 N   0  0  0  0  0  0  0  0  0  0  0  0
    5.4641    2.8170    0.0000 C   0  0  0  0  0  0  0  0  0  0  0  0
    5.4641    1.8170    0.0000 C   0  0  0  0  0  0  0  0  0  0  0  0
    3.7320    1.8170    0.0000 C   0  0  0  0  0  0  0  0  0  0  0  0
    3.7320    2.8170    0.0000 C   0  0  0  0  0  0  0  0  0  0  0  0
    7.1962    3.8170    0.0000 C   0  0  0  0  0  0  0  0  0  0  0  0
    5.8301    4.1830    0.0000 C   0  0  0  0  0  0  0  0  0  0  0  0
    2.8660    3.3170    0.0000 C   0  0  0  0  0  0  0  0  0  0  0  0
    4.5981    3.3170    0.0000 C   0  0  0  0  0  0  0  0  0  0  0  0
    4.5981    0.3170    0.0000 C   0  0  0  0  0  0  0  0  0  0  0  0
    3.7320   -1.1830    0.0000 C   0  0  0  0  0  0  0  0  0  0  0  0
    2.8660   -1.6830    0.0000 C   0  0  0  0  0  0  0  0  0  0  0  0
    4.5981   -1.6830    0.0000 C   0  0  0  0  0  0  0  0  0  0  0  0
    2.8660   -2.6830    0.0000 C   0  0  0  0  0  0  0  0  0  0  0  0
    4.5981   -2.6830    0.0000 C   0  0  0  0  0  0  0  0  0  0  0  0
    3.7320   -3.1830    0.0000 C   0  0  0  0  0  0  0  0  0  0  0  0
    5.2520    3.3996    0.0000 H   0  0  0  0  0  0  0  0  0  0  0  0
    4.8535    2.7093    0.0000 H   0  0  0  0  0  0  0  0  0  0  0  0
    5.6762    1.2344    0.0000 H   0  0  0  0  0  0  0  0  0  0  0  0
    6.0747    1.9246    0.0000 H   0  0  0  0  0  0  0  0  0  0  0  0
    6.6401    2.7800    0.0000 H   0  0  0  0  0  0  0  0  0  0  0  0
    3.1215    1.9246    0.0000 H   0  0  0  0  0  0  0  0  0  0  0  0
    3.5200    1.2344    0.0000 H   0  0  0  0  0  0  0  0  0  0  0  0
    3.7320    3.4370    0.0000 H   0  0  0  0  0  0  0  0  0  0  0  0
    7.5062    3.2800    0.0000 H   0  0  0  0  0  0  0  0  0  0  0  0
    7.7331    4.1270    0.0000 H   0  0  0  0  0  0  0  0  0  0  0  0
    6.8862    4.3539    0.0000 H   0  0  0  0  0  0  0  0  0  0  0  0
    6.3671    4.4930    0.0000 H   0  0  0  0  0  0  0  0  0  0  0  0
    5.5201    4.7200    0.0000 H   0  0  0  0  0  0  0  0  0  0  0  0
    5.2932    3.8730    0.0000 H   0  0  0  0  0  0  0  0  0  0  0  0
    3.1760    3.8539    0.0000 H   0  0  0  0  0  0  0  0  0  0  0  0
    4.9081    2.7800    0.0000 H   0  0  0  0  0  0  0  0  0  0  0  0
    5.1350    3.6270    0.0000 H   0  0  0  0  0  0  0  0  0  0  0  0
    4.2881    3.8539    0.0000 H   0  0  0  0  0  0  0  0  0  0  0  0
    2.3291    3.6270    0.0000 H   0  0  0  0  0  0  0  0  0  0  0  0
    2.5560    2.7800    0.0000 H   0  0  0  0  0  0  0  0  0  0  0  0
    3.1951    0.1270    0.0000 H   0  0  0  0  0  0  0  0  0  0  0  0
    2.3291   -1.3730    0.0000 H   0  0  0  0  0  0  0  0  0  0  0  0
    5.1350   -1.3730    0.0000 H   0  0  0  0  0  0  0  0  0  0  0  0
    5.1350   -2.9930    0.0000 H   0  0  0  0  0  0  0  0  0  0  0  0
  1 19  1  0  0  0  0
  2 21  1  0  0  0  0
  3 15  2  0  0  0  0
  4  7  1  0  0  0  0
  4 11  1  0  0  0  0
  4 12  1  0  0  0  0
  4 26  1  0  0  0  0
  5  8  1  0  0  0  0
  5  9  1  0  0  0  0
  5 15  1  0  0  0  0
  6 15  1  0  0  0  0
  6 16  1  0  0  0  0
  6 42  1  0  0  0  0
  7  8  1  0  0  0  0
  7 22  1  0  0  0  0
  7 23  1  0  0  0  0
  8 24  1  0  0  0  0
  8 25  1  0  0  0  0
  9 10  1  0  0  0  0
  9 27  1  0  0  0  0
  9 28  1  0  0  0  0
 10 13  1  0  0  0  0
 10 14  1  0  0  0  0
 10 29  1  0  0  0  0
 11 30  1  0  0  0  0
 11 31  1  0  0  0  0
 11 32  1  0  0  0  0
 12 33  1  0  0  0  0
 12 34  1  0  0  0  0
 12 35  1  0  0  0  0
 13 36  1  0  0  0  0
 13 40  1  0  0  0  0
 13 41  1  0  0  0  0
 14 37  1  0  0  0  0
 14 38  1  0  0  0  0
 14 39  1  0  0  0  0
 16 17  2  0  0  0  0
 16 18  1  0  0  0  0
 17 19  1  0  0  0  0
 17 43  1  0  0  0  0
 18 20  2  0  0  0  0
 18 44  1  0  0  0  0
 19 21  2  0  0  0  0
 20 21  1  0  0  0  0
 20 45  1  0  0  0  0
M  CHG  1   4   1
M  END
> <PUBCHEM_COMPOUND_CID>
32082237

> <PUBCHEM_COMPOUND_CANONICALIZED>
1

> <PUBCHEM_CACTVS_COMPLEXITY>
326

> <PUBCHEM_CACTVS_HBOND_ACCEPTOR>
1

> <PUBCHEM_CACTVS_HBOND_DONOR>
2

> <PUBCHEM_CACTVS_ROTATABLE_BOND>
6

> <PUBCHEM_CACTVS_SUBSKEYS>
AAADceBzIAAGAAAAAAAAAAAAAAAAAAAAAAAwAAAAAAAAAAABAAAAHgIQAAAADQrBECQzwIPAAACIACRCUACCAAAhBwAIisAIZoiIYCLBk5GUIAholgLIyCcQAAAAAABAAAIAAAQAAIAABAAACAAAAAAAAA==

> <PUBCHEM_IUPAC_OPENEYE_NAME>
2-[(3,4-dichlorophenyl)carbamoyl-isobutyl-amino]ethyl-dimethyl-ammonium

> <PUBCHEM_IUPAC_CAS_NAME>
2-[[(3,4-dichloroanilino)-oxomethyl]-(2-methylpropyl)amino]ethyl-dimethylammonium

> <PUBCHEM_IUPAC_NAME>
2-[(3,4-dichlorophenyl)carbamoyl-(2-methylpropyl)amino]ethyl-dimethylazanium

> <PUBCHEM_IUPAC_SYSTEMATIC_NAME>
2-[(3,4-dichlorophenyl)carbamoyl-(2-methylpropyl)amino]ethyl-dimethyl-azanium

> <PUBCHEM_IUPAC_TRADITIONAL_NAME>
2-[(3,4-dichlorophenyl)carbamoyl-isobutyl-amino]ethyl-dimethyl-ammonium

> <PUBCHEM_IUPAC_INCHI>
InChI=1S/C15H23Cl2N3O/c1-11(2)10-20(8-7-19(3)4)15(21)18-12-5-6-13(16)14(17)9-12/h5-6,9,11H,7-8,10H2,1-4H3,(H,18,21)/p+1

> <PUBCHEM_IUPAC_INCHIKEY>
LGUTZHLVBDJJCR-UHFFFAOYSA-O

> <PUBCHEM_XLOGP3>
4

> <PUBCHEM_EXACT_MASS>
332.129643

> <PUBCHEM_MOLECULAR_FORMULA>
C15H24Cl2N3O+

> <PUBCHEM_MOLECULAR_WEIGHT>
333.27656

> <PUBCHEM_OPENEYE_CAN_SMILES>
CC(C)CN(CC[NH+](C)C)C(=O)NC1=CC(=C(C=C1)Cl)Cl

> <PUBCHEM_OPENEYE_ISO_SMILES>
CC(C)CN(CC[NH+](C)C)C(=O)NC1=CC(=C(C=C1)Cl)Cl

> <PUBCHEM_CACTVS_TPSA>
36.8

> <PUBCHEM_MONOISOTOPIC_WEIGHT>
332.129643

> <PUBCHEM_TOTAL_CHARGE>
1

> <PUBCHEM_HEAVY_ATOM_COUNT>
21

> <PUBCHEM_ATOM_DEF_STEREO_COUNT>
0

> <PUBCHEM_ATOM_UDEF_STEREO_COUNT>
0

> <PUBCHEM_BOND_DEF_STEREO_COUNT>
0

> <PUBCHEM_BOND_UDEF_STEREO_COUNT>
0

> <PUBCHEM_ISOTOPIC_ATOM_COUNT>
0

> <PUBCHEM_COMPONENT_COUNT>
1

> <PUBCHEM_CACTVS_TAUTO_COUNT>
2

> <PUBCHEM_COORDINATE_TYPE>
1
5
255

> <PUBCHEM_BONDANNOTATIONS>
16  17  8
16  18  8
17  19  8
18  20  8
19  21  8
20  21  8

$$$$
32082521
  -OEChem-11301217442D

 33 35  0     0  0  0  0  0  0999 V2000
    8.5458    2.5655    0.0000 Cl  0  0  0  0  0  0  0  0  0  0  0  0
    4.3211    0.7901    0.0000 O   0  0  0  0  0  0  0  0  0  0  0  0
    4.6783   -2.5142    0.0000 N   0  0  0  0  0  0  0  0  0  0  0  0
    5.9674    0.2520    0.0000 N   0  0  0  0  0  0  0  0  0  0  0  0
    3.7320   -1.2095    0.0000 C   0  0  0  0  0  0  0  0  0  0  0  0
    4.6783   -0.9048    0.0000 C   0  0  0  0  0  0  0  0  0  0  0  0
    3.7320   -2.2095    0.0000 C   0  0  0  0  0  0  0  0  0  0  0  0
    5.2619   -1.7095    0.0000 C   0  0  0  0  0  0  0  0  0  0  0  0
    4.9889    0.0458    0.0000 C   0  0  0  0  0  0  0  0  0  0  0  0
    6.2781    1.2025    0.0000 C   0  0  0  0  0  0  0  0  0  0  0  0
    2.8660   -0.7095    0.0000 C   0  0  0  0  0  0  0  0  0  0  0  0
    2.8660   -2.7095    0.0000 C   0  0  0  0  0  0  0  0  0  0  0  0
    7.2566    1.4087    0.0000 C   0  0  0  0  0  0  0  0  0  0  0  0
    2.0000   -1.2095    0.0000 C   0  0  0  0  0  0  0  0  0  0  0  0
    2.0000   -2.2095    0.0000 C   0  0  0  0  0  0  0  0  0  0  0  0
    5.6103    1.9468    0.0000 C   0  0  0  0  0  0  0  0  0  0  0  0
    7.5673    2.3592    0.0000 C   0  0  0  0  0  0  0  0  0  0  0  0
    7.9244    0.6644    0.0000 C   0  0  0  0  0  0  0  0  0  0  0  0
    5.9209    2.8973    0.0000 C   0  0  0  0  0  0  0  0  0  0  0  0
    6.8994    3.1035    0.0000 C   0  0  0  0  0  0  0  0  0  0  0  0
    5.8819   -1.7095    0.0000 H   0  0  0  0  0  0  0  0  0  0  0  0
    4.8709   -3.1035    0.0000 H   0  0  0  0  0  0  0  0  0  0  0  0
    2.8660   -0.0895    0.0000 H   0  0  0  0  0  0  0  0  0  0  0  0
    2.8660   -3.3295    0.0000 H   0  0  0  0  0  0  0  0  0  0  0  0
    6.3815   -0.2095    0.0000 H   0  0  0  0  0  0  0  0  0  0  0  0
    1.4631   -0.8995    0.0000 H   0  0  0  0  0  0  0  0  0  0  0  0
    1.4631   -2.5195    0.0000 H   0  0  0  0  0  0  0  0  0  0  0  0
    5.0036    1.8190    0.0000 H   0  0  0  0  0  0  0  0  0  0  0  0
    7.4630    0.2504    0.0000 H   0  0  0  0  0  0  0  0  0  0  0  0
    8.3385    0.2030    0.0000 H   0  0  0  0  0  0  0  0  0  0  0  0
    8.3859    1.0785    0.0000 H   0  0  0  0  0  0  0  0  0  0  0  0
    5.5069    3.3588    0.0000 H   0  0  0  0  0  0  0  0  0  0  0  0
    7.0920    3.6929    0.0000 H   0  0  0  0  0  0  0  0  0  0  0  0
  1 17  1  0  0  0  0
  2  9  2  0  0  0  0
  3  7  1  0  0  0  0
  3  8  1  0  0  0  0
  3 22  1  0  0  0  0
  4  9  1  0  0  0  0
  4 10  1  0  0  0  0
  4 25  1  0  0  0  0
  5  6  1  0  0  0  0
  5  7  1  0  0  0  0
  5 11  2  0  0  0  0
  6  8  2  0  0  0  0
  6  9  1  0  0  0  0
  7 12  2  0  0  0  0
  8 21  1  0  0  0  0
 10 13  2  0  0  0  0
 10 16  1  0  0  0  0
 11 14  1  0  0  0  0
 11 23  1  0  0  0  0
 12 15  1  0  0  0  0
 12 24  1  0  0  0  0
 13 17  1  0  0  0  0
 13 18  1  0  0  0  0
 14 15  2  0  0  0  0
 14 26  1  0  0  0  0
 15 27  1  0  0  0  0
 16 19  2  0  0  0  0
 16 28  1  0  0  0  0
 17 20  2  0  0  0  0
 18 29  1  0  0  0  0
 18 30  1  0  0  0  0
 18 31  1  0  0  0  0
 19 20  1  0  0  0  0
 19 32  1  0  0  0  0
 20 33  1  0  0  0  0
M  END
> <PUBCHEM_COMPOUND_CID>
32082521

> <PUBCHEM_COMPOUND_CANONICALIZED>
1

> <PUBCHEM_CACTVS_COMPLEXITY>
362

> <PUBCHEM_CACTVS_HBOND_ACCEPTOR>
1

> <PUBCHEM_CACTVS_HBOND_DONOR>
2

> <PUBCHEM_CACTVS_ROTATABLE_BOND>
2

> <PUBCHEM_CACTVS_SUBSKEYS>
AAADccB7IAAEAAAAAAAAAAAAAAAAAWAAAAAwYAAAAAAAAFgB9AAAHgIQAAAADArBniQ+wPLJkACoAzV3VACCgCA1ByAI2aE4ZtgIIPrB15GEIYhglADIyccciMCOgAAAAAIDAAAAAAAABAYAAAAAAAAAAA==

> <PUBCHEM_IUPAC_OPENEYE_NAME>
N-(3-chloro-2-methyl-phenyl)-1H-indole-3-carboxamide

> <PUBCHEM_IUPAC_CAS_NAME>
N-(3-chloro-2-methylphenyl)-1H-indole-3-carboxamide

> <PUBCHEM_IUPAC_NAME>
N-(3-chloro-2-methylphenyl)-1H-indole-3-carboxamide

> <PUBCHEM_IUPAC_SYSTEMATIC_NAME>
N-(3-chloranyl-2-methyl-phenyl)-1H-indole-3-carboxamide

> <PUBCHEM_IUPAC_TRADITIONAL_NAME>
N-(3-chloro-2-methyl-phenyl)-1H-indole-3-carboxamide

> <PUBCHEM_IUPAC_INCHI>
InChI=1S/C16H13ClN2O/c1-10-13(17)6-4-8-14(10)19-16(20)12-9-18-15-7-3-2-5-11(12)15/h2-9,18H,1H3,(H,19,20)

> <PUBCHEM_IUPAC_INCHIKEY>
JOTTWLHIBYVHKP-UHFFFAOYSA-N

> <PUBCHEM_XLOGP3>
4.3

> <PUBCHEM_EXACT_MASS>
284.071641

> <PUBCHEM_MOLECULAR_FORMULA>
C16H13ClN2O

> <PUBCHEM_MOLECULAR_WEIGHT>
284.74022

> <PUBCHEM_OPENEYE_CAN_SMILES>
CC1=C(C=CC=C1Cl)NC(=O)C2=CNC3=CC=CC=C32

> <PUBCHEM_OPENEYE_ISO_SMILES>
CC1=C(C=CC=C1Cl)NC(=O)C2=CNC3=CC=CC=C32

> <PUBCHEM_CACTVS_TPSA>
44.9

> <PUBCHEM_MONOISOTOPIC_WEIGHT>
284.071641

> <PUBCHEM_TOTAL_CHARGE>
0

> <PUBCHEM_HEAVY_ATOM_COUNT>
20

> <PUBCHEM_ATOM_DEF_STEREO_COUNT>
0

> <PUBCHEM_ATOM_UDEF_STEREO_COUNT>
0

> <PUBCHEM_BOND_DEF_STEREO_COUNT>
0

> <PUBCHEM_BOND_UDEF_STEREO_COUNT>
0

> <PUBCHEM_ISOTOPIC_ATOM_COUNT>
0

> <PUBCHEM_COMPONENT_COUNT>
1

> <PUBCHEM_CACTVS_TAUTO_COUNT>
5

> <PUBCHEM_COORDINATE_TYPE>
1
5
255

> <PUBCHEM_BONDANNOTATIONS>
10  13  8
10  16  8
11  14  8
12  15  8
13  17  8
14  15  8
16  19  8
17  20  8
19  20  8
3  7  8
3  8  8
5  11  8
5  6  8
5  7  8
6  8  8
7  12  8

$$$$
