24938403
  -OEChem-05231305162D

 16 16  0     0  0  0  0  0  0999 V2000
    5.1350    1.7500    0.0000 Br  0  0  0  0  0  0  0  0  0  0  0  0
    6.0010   -1.7500    0.0000 Br  0  0  0  0  0  0  0  0  0  0  0  0
    2.5369    0.2500    0.0000 O   0  0  0  0  0  0  0  0  0  0  0  0
    4.2690    0.2500    0.0000 C   0  0  0  0  0  0  0  0  0  0  0  0
    3.4030   -0.2500    0.0000 C   0  0  0  0  0  0  0  0  0  0  0  0
    5.1350   -0.2500    0.0000 C   0  0  0  0  0  0  0  0  0  0  0  0
    4.2690    1.2500    0.0000 C   0  0  0  0  0  0  0  0  0  0  0  0
    3.4030   -1.2500    0.0000 C   0  0  0  0  0  0  0  0  0  0  0  0
    5.1350   -1.2500    0.0000 C   0  0  0  0  0  0  0  0  0  0  0  0
    4.2690   -1.7500    0.0000 C   0  0  0  0  0  0  0  0  0  0  0  0
    5.6720    0.0600    0.0000 H   0  0  0  0  0  0  0  0  0  0  0  0
    4.0569    1.8326    0.0000 H   0  0  0  0  0  0  0  0  0  0  0  0
    3.6584    1.1423    0.0000 H   0  0  0  0  0  0  0  0  0  0  0  0
    2.8660   -1.5600    0.0000 H   0  0  0  0  0  0  0  0  0  0  0  0
    4.2690   -2.3700    0.0000 H   0  0  0  0  0  0  0  0  0  0  0  0
    2.0000   -0.0600    0.0000 H   0  0  0  0  0  0  0  0  0  0  0  0
  1  7  1  0  0  0  0
  2  9  1  0  0  0  0
  3  5  1  0  0  0  0
  3 16  1  0  0  0  0
  4  5  2  0  0  0  0
  4  6  1  0  0  0  0
  4  7  1  0  0  0  0
  5  8  1  0  0  0  0
  6  9  2  0  0  0  0
  6 11  1  0  0  0  0
  7 12  1  0  0  0  0
  7 13  1  0  0  0  0
  8 10  2  0  0  0  0
  8 14  1  0  0  0  0
  9 10  1  0  0  0  0
 10 15  1  0  0  0  0
M  END
> <PUBCHEM_COMPOUND_CID>
24938403

> <PUBCHEM_COMPOUND_CANONICALIZED>
1

> <PUBCHEM_CACTVS_COMPLEXITY>
108

> <PUBCHEM_CACTVS_HBOND_ACCEPTOR>
1

> <PUBCHEM_CACTVS_HBOND_DONOR>
1

> <PUBCHEM_CACTVS_ROTATABLE_BOND>
1

> <PUBCHEM_CACTVS_SUBSKEYS>
AAADcYBgIAAAGAAAAAAAAAAAAAAAAAAAAAAwAAAAAAAAAAABAAAAGgBACAAB7ASAmAAwBoAAAgCAAiBCAAACAAAgIAQIiAAGCKgIJiKCERKAcAAkwBEImheAwCAOABAAEAAIAAAAIAAgABAAAAAAAAAAAA==

> <PUBCHEM_IUPAC_OPENEYE_NAME>
4-bromo-2-(bromomethyl)phenol

> <PUBCHEM_IUPAC_CAS_NAME>
4-bromo-2-(bromomethyl)phenol

> <PUBCHEM_IUPAC_NAME>
4-bromo-2-(bromomethyl)phenol

> <PUBCHEM_IUPAC_SYSTEMATIC_NAME>
4-bromanyl-2-(bromomethyl)phenol

> <PUBCHEM_IUPAC_TRADITIONAL_NAME>
4-bromo-2-(bromomethyl)phenol

> <PUBCHEM_IUPAC_INCHI>
InChI=1S/C7H6Br2O/c8-4-5-3-6(9)1-2-7(5)10/h1-3,10H,4H2

> <PUBCHEM_IUPAC_INCHIKEY>
FENQCXWNFCRZLA-UHFFFAOYSA-N

> <PUBCHEM_XLOGP3>
2.6

> <PUBCHEM_EXACT_MASS>
265.876493

> <PUBCHEM_MOLECULAR_FORMULA>
C7H6Br2O

> <PUBCHEM_MOLECULAR_WEIGHT>
265.92994

> <PUBCHEM_OPENEYE_CAN_SMILES>
C1=CC(=C(C=C1Br)CBr)O

> <PUBCHEM_OPENEYE_ISO_SMILES>
C1=CC(=C(C=C1Br)CBr)O

> <PUBCHEM_CACTVS_TPSA>
20.2

> <PUBCHEM_MONOISOTOPIC_WEIGHT>
263.878539

> <PUBCHEM_TOTAL_CHARGE>
0

> <PUBCHEM_HEAVY_ATOM_COUNT>
10

> <PUBCHEM_ATOM_DEF_STEREO_COUNT>
0

> <PUBCHEM_ATOM_UDEF_STEREO_COUNT>
0

> <PUBCHEM_BOND_DEF_STEREO_COUNT>
0

> <PUBCHEM_BOND_UDEF_STEREO_COUNT>
0

> <PUBCHEM_ISOTOPIC_ATOM_COUNT>
0

> <PUBCHEM_COMPONENT_COUNT>
1

> <PUBCHEM_CACTVS_TAUTO_COUNT>
3

> <PUBCHEM_COORDINATE_TYPE>
1
5
255

> <PUBCHEM_BONDANNOTATIONS>
4  5  8
4  6  8
5  8  8
6  9  8
8  10  8
9  10  8

$$$$
24938762
  -OEChem-05231305162D

 25 25  0     1  0  0  0  0  0999 V2000
    2.0000   -0.6830    0.0000 Br  0  0  0  0  0  0  0  0  0  0  0  0
    8.5622    0.6830    0.0000 O   0  0  0  0  0  0  0  0  0  0  0  0
    8.0622   -0.1830    0.0000 C   0  0  1  0  0  0  0  0  0  0  0  0
    7.1962   -0.6830    0.0000 C   0  0  0  0  0  0  0  0  0  0  0  0
    9.0622   -0.1830    0.0000 C   0  0  0  0  0  0  0  0  0  0  0  0
    6.3301   -0.1830    0.0000 C   0  0  0  0  0  0  0  0  0  0  0  0
    5.4641   -0.6830    0.0000 C   0  0  0  0  0  0  0  0  0  0  0  0
    4.5981   -0.1830    0.0000 C   0  0  0  0  0  0  0  0  0  0  0  0
    3.7320   -0.6830    0.0000 C   0  0  0  0  0  0  0  0  0  0  0  0
    2.8660   -0.1830    0.0000 C   0  0  0  0  0  0  0  0  0  0  0  0
    7.6238    0.2554    0.0000 H   0  0  0  0  0  0  0  0  0  0  0  0
    6.7976   -1.1580    0.0000 H   0  0  0  0  0  0  0  0  0  0  0  0
    7.5947   -1.1580    0.0000 H   0  0  0  0  0  0  0  0  0  0  0  0
    9.1698   -0.7936    0.0000 H   0  0  0  0  0  0  0  0  0  0  0  0
    9.6448    0.0290    0.0000 H   0  0  0  0  0  0  0  0  0  0  0  0
    6.7287    0.2919    0.0000 H   0  0  0  0  0  0  0  0  0  0  0  0
    5.9316    0.2919    0.0000 H   0  0  0  0  0  0  0  0  0  0  0  0
    5.0656   -1.1580    0.0000 H   0  0  0  0  0  0  0  0  0  0  0  0
    5.8626   -1.1580    0.0000 H   0  0  0  0  0  0  0  0  0  0  0  0
    4.9966    0.2919    0.0000 H   0  0  0  0  0  0  0  0  0  0  0  0
    4.1996    0.2919    0.0000 H   0  0  0  0  0  0  0  0  0  0  0  0
    3.3335   -1.1580    0.0000 H   0  0  0  0  0  0  0  0  0  0  0  0
    4.1306   -1.1580    0.0000 H   0  0  0  0  0  0  0  0  0  0  0  0
    3.2646    0.2919    0.0000 H   0  0  0  0  0  0  0  0  0  0  0  0
    2.4675    0.2919    0.0000 H   0  0  0  0  0  0  0  0  0  0  0  0
  1 10  1  0  0  0  0
  2  3  1  0  0  0  0
  2  5  1  0  0  0  0
  3  4  1  6  0  0  0
  3  5  1  0  0  0  0
  3 11  1  0  0  0  0
  4  6  1  0  0  0  0
  4 12  1  0  0  0  0
  4 13  1  0  0  0  0
  5 14  1  0  0  0  0
  5 15  1  0  0  0  0
  6  7  1  0  0  0  0
  6 16  1  0  0  0  0
  6 17  1  0  0  0  0
  7  8  1  0  0  0  0
  7 18  1  0  0  0  0
  7 19  1  0  0  0  0
  8  9  1  0  0  0  0
  8 20  1  0  0  0  0
  8 21  1  0  0  0  0
  9 10  1  0  0  0  0
  9 22  1  0  0  0  0
  9 23  1  0  0  0  0
 10 24  1  0  0  0  0
 10 25  1  0  0  0  0
M  END
> <PUBCHEM_COMPOUND_CID>
24938762

> <PUBCHEM_COMPOUND_CANONICALIZED>
1

> <PUBCHEM_CACTVS_COMPLEXITY>
85.3

> <PUBCHEM_CACTVS_HBOND_ACCEPTOR>
1

> <PUBCHEM_CACTVS_HBOND_DONOR>
0

> <PUBCHEM_CACTVS_ROTATABLE_BOND>
6

> <PUBCHEM_CACTVS_SUBSKEYS>
AAADccBwIAAAEAAAAAAAAAAAEgAAAAAAAAAAAAAAAAAAAAAAAAAAGgBAAAABSBSggAIAAAAABAAAAAAAAAAAAAAAAAAAAAAAACAAAAIAAAAAAAAEAAAAAAGAwKAAAAAAAAAAAAAAAAAAAAAAAAAAAAAAAA==

> <PUBCHEM_IUPAC_OPENEYE_NAME>
(2S)-2-(6-bromohexyl)oxirane

> <PUBCHEM_IUPAC_CAS_NAME>
(2S)-2-(6-bromohexyl)oxirane

> <PUBCHEM_IUPAC_NAME>
(2S)-2-(6-bromohexyl)oxirane

> <PUBCHEM_IUPAC_SYSTEMATIC_NAME>
(2S)-2-(6-bromanylhexyl)oxirane

> <PUBCHEM_IUPAC_TRADITIONAL_NAME>
(2S)-2-(6-bromohexyl)oxirane

> <PUBCHEM_IUPAC_INCHI>
InChI=1S/C8H15BrO/c9-6-4-2-1-3-5-8-7-10-8/h8H,1-7H2/t8-/m0/s1

> <PUBCHEM_IUPAC_INCHIKEY>
CSOJDWCBTXEKGP-QMMMGPOBSA-N

> <PUBCHEM_XLOGP3>
2.9

> <PUBCHEM_EXACT_MASS>
206.030627

> <PUBCHEM_MOLECULAR_FORMULA>
C8H15BrO

> <PUBCHEM_MOLECULAR_WEIGHT>
207.1081

> <PUBCHEM_OPENEYE_CAN_SMILES>
C1C(O1)CCCCCCBr

> <PUBCHEM_OPENEYE_ISO_SMILES>
C1[C@@H](O1)CCCCCCBr

> <PUBCHEM_CACTVS_TPSA>
12.5

> <PUBCHEM_MONOISOTOPIC_WEIGHT>
206.030627

> <PUBCHEM_TOTAL_CHARGE>
0

> <PUBCHEM_HEAVY_ATOM_COUNT>
10

> <PUBCHEM_ATOM_DEF_STEREO_COUNT>
1

> <PUBCHEM_ATOM_UDEF_STEREO_COUNT>
0

> <PUBCHEM_BOND_DEF_STEREO_COUNT>
0

> <PUBCHEM_BOND_UDEF_STEREO_COUNT>
0

> <PUBCHEM_ISOTOPIC_ATOM_COUNT>
0

> <PUBCHEM_COMPONENT_COUNT>
1

> <PUBCHEM_CACTVS_TAUTO_COUNT>
1

> <PUBCHEM_COORDINATE_TYPE>
1
5
255

> <PUBCHEM_BONDANNOTATIONS>
3  4  6

$$$$
24944797
  -OEChem-05231305172D

 44 47  0     1  0  0  0  0  0999 V2000
    2.8660   -0.6734    0.0000 Cl  0  0  0  0  0  0  0  0  0  0  0  0
    9.5987    0.8919    0.0000 O   0  0  0  0  0  0  0  0  0  0  0  0
   11.9447   -0.2000    0.0000 O   0  0  0  0  0  0  0  0  0  0  0  0
   11.9484    1.9756    0.0000 O   0  0  0  0  0  0  0  0  0  0  0  0
   10.5509    3.3934    0.0000 O   0  0  0  0  0  0  0  0  0  0  0  0
    6.3301   -0.6734    0.0000 O   0  0  0  0  0  0  0  0  0  0  0  0
    9.8744   -0.8687    0.0000 N   0  0  0  0  0  0  0  0  0  0  0  0
    9.8744   -2.4782    0.0000 N   0  0  0  0  0  0  0  0  0  0  0  0
    8.0622   -0.6734    0.0000 N   0  0  0  0  0  0  0  0  0  0  0  0
    7.1962   -2.1734    0.0000 N   0  0  0  0  0  0  0  0  0  0  0  0
    8.0622   -3.6734    0.0000 N   0  0  0  0  0  0  0  0  0  0  0  0
    2.0000   -3.1734    0.0000 N   0  0  0  0  0  0  0  0  0  0  0  0
   11.1367    0.3892    0.0000 C   0  0  1  0  0  0  0  0  0  0  0  0
   10.1851    0.0818    0.0000 C   0  0  1  0  0  0  0  0  0  0  0  0
   11.1384    1.3892    0.0000 C   0  0  1  0  0  0  0  0  0  0  0  0
   10.1879    1.6999    0.0000 C   0  0  1  0  0  0  0  0  0  0  0  0
    9.8805    2.6514    0.0000 C   0  0  0  0  0  0  0  0  0  0  0  0
    8.9282   -1.1734    0.0000 C   0  0  0  0  0  0  0  0  0  0  0  0
   10.4580   -1.6734    0.0000 C   0  0  0  0  0  0  0  0  0  0  0  0
    8.9282   -2.1734    0.0000 C   0  0  0  0  0  0  0  0  0  0  0  0
    8.0622   -2.6734    0.0000 C   0  0  0  0  0  0  0  0  0  0  0  0
    7.1962   -1.1734    0.0000 C   0  0  0  0  0  0  0  0  0  0  0  0
    5.4641   -1.1734    0.0000 C   0  0  0  0  0  0  0  0  0  0  0  0
    4.5981   -0.6734    0.0000 C   0  0  0  0  0  0  0  0  0  0  0  0
    5.4641   -2.1734    0.0000 C   0  0  0  0  0  0  0  0  0  0  0  0
    3.7320   -1.1734    0.0000 C   0  0  0  0  0  0  0  0  0  0  0  0
    4.5981   -2.6734    0.0000 C   0  0  0  0  0  0  0  0  0  0  0  0
    3.7320   -2.1734    0.0000 C   0  0  0  0  0  0  0  0  0  0  0  0
    2.8660   -2.6734    0.0000 C   0  0  0  0  0  0  0  0  0  0  0  0
   11.0386   -0.2230    0.0000 H   0  0  0  0  0  0  0  0  0  0  0  0
   10.6227   -0.3573    0.0000 H   0  0  0  0  0  0  0  0  0  0  0  0
   11.6903    1.1068    0.0000 H   0  0  0  0  0  0  0  0  0  0  0  0
    9.5757    1.7979    0.0000 H   0  0  0  0  0  0  0  0  0  0  0  0
    9.4997    3.1407    0.0000 H   0  0  0  0  0  0  0  0  0  0  0  0
    9.3326    2.3613    0.0000 H   0  0  0  0  0  0  0  0  0  0  0  0
   12.5115    0.0512    0.0000 H   0  0  0  0  0  0  0  0  0  0  0  0
   12.5144    1.7224    0.0000 H   0  0  0  0  0  0  0  0  0  0  0  0
   11.0780   -1.6734    0.0000 H   0  0  0  0  0  0  0  0  0  0  0  0
   10.3604    3.9834    0.0000 H   0  0  0  0  0  0  0  0  0  0  0  0
    7.5252   -3.9834    0.0000 H   0  0  0  0  0  0  0  0  0  0  0  0
    8.5991   -3.9834    0.0000 H   0  0  0  0  0  0  0  0  0  0  0  0
    4.5981   -0.0534    0.0000 H   0  0  0  0  0  0  0  0  0  0  0  0
    6.0010   -2.4834    0.0000 H   0  0  0  0  0  0  0  0  0  0  0  0
    4.5981   -3.2934    0.0000 H   0  0  0  0  0  0  0  0  0  0  0  0
  1 26  1  0  0  0  0
  2 14  1  0  0  0  0
  2 16  1  0  0  0  0
 13  3  1  1  0  0  0
  3 36  1  0  0  0  0
 15  4  1  1  0  0  0
  4 37  1  0  0  0  0
  5 17  1  0  0  0  0
  5 39  1  0  0  0  0
  6 22  1  0  0  0  0
  6 23  1  0  0  0  0
 14  7  1  6  0  0  0
  7 18  1  0  0  0  0
  7 19  1  0  0  0  0
  8 19  2  0  0  0  0
  8 20  1  0  0  0  0
  9 18  2  0  0  0  0
  9 22  1  0  0  0  0
 10 21  1  0  0  0  0
 10 22  2  0  0  0  0
 11 21  1  0  0  0  0
 11 40  1  0  0  0  0
 11 41  1  0  0  0  0
 12 29  3  0  0  0  0
 13 14  1  0  0  0  0
 13 15  1  0  0  0  0
 13 30  1  0  0  0  0
 14 31  1  0  0  0  0
 15 16  1  0  0  0  0
 15 32  1  0  0  0  0
 16 17  1  6  0  0  0
 16 33  1  0  0  0  0
 17 34  1  0  0  0  0
 17 35  1  0  0  0  0
 18 20  1  0  0  0  0
 19 38  1  0  0  0  0
 20 21  2  0  0  0  0
 23 24  2  0  0  0  0
 23 25  1  0  0  0  0
 24 26  1  0  0  0  0
 24 42  1  0  0  0  0
 25 27  2  0  0  0  0
 25 43  1  0  0  0  0
 26 28  2  0  0  0  0
 27 28  1  0  0  0  0
 27 44  1  0  0  0  0
 28 29  1  0  0  0  0
M  END
> <PUBCHEM_COMPOUND_CID>
24944797

> <PUBCHEM_COMPOUND_CANONICALIZED>
1

> <PUBCHEM_CACTVS_COMPLEXITY>
639

> <PUBCHEM_CACTVS_HBOND_ACCEPTOR>
10

> <PUBCHEM_CACTVS_HBOND_DONOR>
4

> <PUBCHEM_CACTVS_ROTATABLE_BOND>
4

> <PUBCHEM_CACTVS_SUBSKEYS>
AAADccB7uAAEAAAAAAAAAAAAAAAAAWJAAAA8QAAAAAAAAFgB/AAAHgIQCAAADB7hnyY19r9MFgCwByZjZACiiC0xNaAJ2CAuXpiP/iLF+1qedCgvwBPbqC/w8AIOIAAAAQABAABAAAACAAIAAAAAAAAAAA==

> <PUBCHEM_IUPAC_OPENEYE_NAME>
4-[6-amino-9-[(2R,3R,4S,5R)-3,4-dihydroxy-5-(hydroxymethyl)tetrahydrofuran-2-yl]purin-2-yl]oxy-2-chloro-benzonitrile

> <PUBCHEM_IUPAC_CAS_NAME>
4-[[6-amino-9-[(2R,3R,4S,5R)-3,4-dihydroxy-5-(hydroxymethyl)-2-oxolanyl]-2-purinyl]oxy]-2-chlorobenzonitrile

> <PUBCHEM_IUPAC_NAME>
4-[6-amino-9-[(2R,3R,4S,5R)-3,4-dihydroxy-5-(hydroxymethyl)oxolan-2-yl]purin-2-yl]oxy-2-chlorobenzonitrile

> <PUBCHEM_IUPAC_SYSTEMATIC_NAME>
4-[6-azanyl-9-[(2R,3R,4S,5R)-5-(hydroxymethyl)-3,4-bis(oxidanyl)oxolan-2-yl]purin-2-yl]oxy-2-chloranyl-benzenecarbonitrile

> <PUBCHEM_IUPAC_TRADITIONAL_NAME>
4-[6-amino-9-[(2R,3R,4S,5R)-3,4-dihydroxy-5-methylol-tetrahydrofuran-2-yl]purin-2-yl]oxy-2-chloro-benzonitrile

> <PUBCHEM_IUPAC_INCHI>
InChI=1S/C17H15ClN6O5/c18-9-3-8(2-1-7(9)4-19)28-17-22-14(20)11-15(23-17)24(6-21-11)16-13(27)12(26)10(5-25)29-16/h1-3,6,10,12-13,16,25-27H,5H2,(H2,20,22,23)/t10-,12-,13-,16-/m1/s1

> <PUBCHEM_IUPAC_INCHIKEY>
KLXHXHUHLYWQMT-XNIJJKJLSA-N

> <PUBCHEM_XLOGP3>
1.2

> <PUBCHEM_EXACT_MASS>
418.079245

> <PUBCHEM_MOLECULAR_FORMULA>
C17H15ClN6O5

> <PUBCHEM_MOLECULAR_WEIGHT>
418.7912

> <PUBCHEM_OPENEYE_CAN_SMILES>
C1=CC(=C(C=C1OC2=NC3=C(C(=N2)N)N=CN3C4C(C(C(O4)CO)O)O)Cl)C#N

> <PUBCHEM_OPENEYE_ISO_SMILES>
C1=CC(=C(C=C1OC2=NC3=C(C(=N2)N)N=CN3[C@H]4[C@@H]([C@@H]([C@H](O4)CO)O)O)Cl)C#N

> <PUBCHEM_CACTVS_TPSA>
173

> <PUBCHEM_MONOISOTOPIC_WEIGHT>
418.079245

> <PUBCHEM_TOTAL_CHARGE>
0

> <PUBCHEM_HEAVY_ATOM_COUNT>
29

> <PUBCHEM_ATOM_DEF_STEREO_COUNT>
4

> <PUBCHEM_ATOM_UDEF_STEREO_COUNT>
0

> <PUBCHEM_BOND_DEF_STEREO_COUNT>
0

> <PUBCHEM_BOND_UDEF_STEREO_COUNT>
0

> <PUBCHEM_ISOTOPIC_ATOM_COUNT>
0

> <PUBCHEM_COMPONENT_COUNT>
1

> <PUBCHEM_CACTVS_TAUTO_COUNT>
3

> <PUBCHEM_COORDINATE_TYPE>
1
5
255

> <PUBCHEM_BONDANNOTATIONS>
10  21  8
10  22  8
16  17  6
18  20  8
20  21  8
23  24  8
23  25  8
24  26  8
25  27  8
26  28  8
27  28  8
13  3  5
15  4  5
14  7  6
7  18  8
7  19  8
8  19  8
8  20  8
9  18  8
9  22  8

$$$$
24944879
  -OEChem-05231305172D

 56 60  0     1  0  0  0  0  0999 V2000
    3.7320    3.6550    0.0000 Cl  0  0  0  0  0  0  0  0  0  0  0  0
    2.0000    2.6550    0.0000 Cl  0  0  0  0  0  0  0  0  0  0  0  0
   12.0027    0.7176    0.0000 O   0  0  0  0  0  0  0  0  0  0  0  0
    9.4647    1.2220    0.0000 O   0  0  0  0  0  0  0  0  0  0  0  0
   10.7465    2.9799    0.0000 O   0  0  0  0  0  0  0  0  0  0  0  0
   13.7273    1.8957    0.0000 O   0  0  0  0  0  0  0  0  0  0  0  0
   10.7404   -0.5403    0.0000 N   0  0  0  0  0  0  0  0  0  0  0  0
    7.1962   -0.3450    0.0000 N   0  0  0  0  0  0  0  0  0  0  0  0
    5.4641    0.6550    0.0000 N   0  0  0  0  0  0  0  0  0  0  0  0
    8.9282   -0.3450    0.0000 N   0  0  0  0  0  0  0  0  0  0  0  0
   10.7404   -2.1497    0.0000 N   0  0  0  0  0  0  0  0  0  0  0  0
    8.0622   -1.8450    0.0000 N   0  0  0  0  0  0  0  0  0  0  0  0
    8.9282   -3.3450    0.0000 N   0  0  0  0  0  0  0  0  0  0  0  0
   11.0511    0.4103    0.0000 C   0  0  1  0  0  0  0  0  0  0  0  0
   10.4647    1.2203    0.0000 C   0  0  1  0  0  0  0  0  0  0  0  0
   11.0539    2.0283    0.0000 C   0  0  1  0  0  0  0  0  0  0  0  0
   12.0044    1.7176    0.0000 C   0  0  1  0  0  0  0  0  0  0  0  0
   12.8145    2.3040    0.0000 C   0  0  0  0  0  0  0  0  0  0  0  0
    9.7942   -0.8450    0.0000 C   0  0  0  0  0  0  0  0  0  0  0  0
    7.1962    0.6550    0.0000 C   0  0  0  0  0  0  0  0  0  0  0  0
    6.3301   -0.8450    0.0000 C   0  0  0  0  0  0  0  0  0  0  0  0
    5.4641   -0.3450    0.0000 C   0  0  0  0  0  0  0  0  0  0  0  0
    6.3301    1.1550    0.0000 C   0  0  0  0  0  0  0  0  0  0  0  0
   11.3241   -1.3450    0.0000 C   0  0  0  0  0  0  0  0  0  0  0  0
    9.7942   -1.8450    0.0000 C   0  0  0  0  0  0  0  0  0  0  0  0
    8.0622   -0.8450    0.0000 C   0  0  0  0  0  0  0  0  0  0  0  0
    8.9282   -2.3450    0.0000 C   0  0  0  0  0  0  0  0  0  0  0  0
    4.5981    1.1550    0.0000 C   0  0  0  0  0  0  0  0  0  0  0  0
    4.5981    2.1550    0.0000 C   0  0  0  0  0  0  0  0  0  0  0  0
    3.7320    0.6550    0.0000 C   0  0  0  0  0  0  0  0  0  0  0  0
    3.7320    2.6550    0.0000 C   0  0  0  0  0  0  0  0  0  0  0  0
    2.8660    1.1550    0.0000 C   0  0  0  0  0  0  0  0  0  0  0  0
    2.8660    2.1550    0.0000 C   0  0  0  0  0  0  0  0  0  0  0  0
   10.4386    0.3143    0.0000 H   0  0  0  0  0  0  0  0  0  0  0  0
   10.1823    0.6683    0.0000 H   0  0  0  0  0  0  0  0  0  0  0  0
   10.4417    2.1263    0.0000 H   0  0  0  0  0  0  0  0  0  0  0  0
   12.5564    1.4352    0.0000 H   0  0  0  0  0  0  0  0  0  0  0  0
   13.1621    2.8174    0.0000 H   0  0  0  0  0  0  0  0  0  0  0  0
   12.3692    2.7355    0.0000 H   0  0  0  0  0  0  0  0  0  0  0  0
    5.9316   -1.3200    0.0000 H   0  0  0  0  0  0  0  0  0  0  0  0
    6.7287   -1.3200    0.0000 H   0  0  0  0  0  0  0  0  0  0  0  0
    7.8067    0.5473    0.0000 H   0  0  0  0  0  0  0  0  0  0  0  0
    7.4082    1.2376    0.0000 H   0  0  0  0  0  0  0  0  0  0  0  0
    4.8535   -0.2373    0.0000 H   0  0  0  0  0  0  0  0  0  0  0  0
    6.7287    1.6300    0.0000 H   0  0  0  0  0  0  0  0  0  0  0  0
    5.9316    1.6300    0.0000 H   0  0  0  0  0  0  0  0  0  0  0  0
    5.2520   -0.9276    0.0000 H   0  0  0  0  0  0  0  0  0  0  0  0
   11.9441   -1.3450    0.0000 H   0  0  0  0  0  0  0  0  0  0  0  0
    9.1557    1.7595    0.0000 H   0  0  0  0  0  0  0  0  0  0  0  0
   11.1622    3.4399    0.0000 H   0  0  0  0  0  0  0  0  0  0  0  0
   14.2295    2.2593    0.0000 H   0  0  0  0  0  0  0  0  0  0  0  0
    5.1350    2.4650    0.0000 H   0  0  0  0  0  0  0  0  0  0  0  0
    3.7320    0.0350    0.0000 H   0  0  0  0  0  0  0  0  0  0  0  0
    8.3913   -3.6550    0.0000 H   0  0  0  0  0  0  0  0  0  0  0  0
    9.4651   -3.6550    0.0000 H   0  0  0  0  0  0  0  0  0  0  0  0
    2.3291    0.8450    0.0000 H   0  0  0  0  0  0  0  0  0  0  0  0
  1 31  1  0  0  0  0
  2 33  1  0  0  0  0
  3 14  1  0  0  0  0
  3 17  1  0  0  0  0
 15  4  1  6  0  0  0
  4 49  1  0  0  0  0
 16  5  1  6  0  0  0
  5 50  1  0  0  0  0
  6 18  1  0  0  0  0
  6 51  1  0  0  0  0
 14  7  1  1  0  0  0
  7 19  1  0  0  0  0
  7 24  1  0  0  0  0
  8 20  1  0  0  0  0
  8 21  1  0  0  0  0
  8 26  1  0  0  0  0
  9 22  1  0  0  0  0
  9 23  1  0  0  0  0
  9 28  1  0  0  0  0
 10 19  2  0  0  0  0
 10 26  1  0  0  0  0
 11 24  2  0  0  0  0
 11 25  1  0  0  0  0
 12 26  2  0  0  0  0
 12 27  1  0  0  0  0
 13 27  1  0  0  0  0
 13 54  1  0  0  0  0
 13 55  1  0  0  0  0
 14 15  1  0  0  0  0
 14 34  1  0  0  0  0
 15 16  1  0  0  0  0
 15 35  1  0  0  0  0
 16 17  1  0  0  0  0
 16 36  1  0  0  0  0
 17 18  1  1  0  0  0
 17 37  1  0  0  0  0
 18 38  1  0  0  0  0
 18 39  1  0  0  0  0
 19 25  1  0  0  0  0
 20 23  1  0  0  0  0
 20 42  1  0  0  0  0
 20 43  1  0  0  0  0
 21 22  1  0  0  0  0
 21 40  1  0  0  0  0
 21 41  1  0  0  0  0
 22 44  1  0  0  0  0
 22 47  1  0  0  0  0
 23 45  1  0  0  0  0
 23 46  1  0  0  0  0
 24 48  1  0  0  0  0
 25 27  2  0  0  0  0
 28 29  2  0  0  0  0
 28 30  1  0  0  0  0
 29 31  1  0  0  0  0
 29 52  1  0  0  0  0
 30 32  2  0  0  0  0
 30 53  1  0  0  0  0
 31 33  2  0  0  0  0
 32 33  1  0  0  0  0
 32 56  1  0  0  0  0
M  END
> <PUBCHEM_COMPOUND_CID>
24944879

> <PUBCHEM_COMPOUND_CANONICALIZED>
1

> <PUBCHEM_CACTVS_COMPLEXITY>
678

> <PUBCHEM_CACTVS_HBOND_ACCEPTOR>
10

> <PUBCHEM_CACTVS_HBOND_DONOR>
4

> <PUBCHEM_CACTVS_ROTATABLE_BOND>
4

> <PUBCHEM_CACTVS_SUBSKEYS>
AAADceB7uAAGAAAAAAAAAAAAAAAAAWJAAAA8WIAAAAAAAFgB/AAAHgIQCAAACB7hlyY18L9MFgCgASZjZACCgC0xF6AJ2mAodpiLeCLB29GeZAhvgALbyCfwMAIAAABAAAIAAAQAAIAABAAACAAAAAAAAA==

> <PUBCHEM_IUPAC_OPENEYE_NAME>
(2R,3R,4S,5R)-2-[6-amino-2-[4-(3,4-dichlorophenyl)piperazin-1-yl]purin-9-yl]-5-(hydroxymethyl)tetrahydrofuran-3,4-diol

> <PUBCHEM_IUPAC_CAS_NAME>
(2R,3R,4S,5R)-2-[6-amino-2-[4-(3,4-dichlorophenyl)-1-piperazinyl]-9-purinyl]-5-(hydroxymethyl)oxolane-3,4-diol

> <PUBCHEM_IUPAC_NAME>
(2R,3R,4S,5R)-2-[6-amino-2-[4-(3,4-dichlorophenyl)piperazin-1-yl]purin-9-yl]-5-(hydroxymethyl)oxolane-3,4-diol

> <PUBCHEM_IUPAC_SYSTEMATIC_NAME>
(2R,3R,4S,5R)-2-[6-azanyl-2-[4-(3,4-dichlorophenyl)piperazin-1-yl]purin-9-yl]-5-(hydroxymethyl)oxolane-3,4-diol

> <PUBCHEM_IUPAC_TRADITIONAL_NAME>
(2R,3R,4S,5R)-2-[6-amino-2-[4-(3,4-dichlorophenyl)piperazino]purin-9-yl]-5-methylol-tetrahydrofuran-3,4-diol

> <PUBCHEM_IUPAC_INCHI>
InChI=1S/C20H23Cl2N7O4/c21-11-2-1-10(7-12(11)22)27-3-5-28(6-4-27)20-25-17(23)14-18(26-20)29(9-24-14)19-16(32)15(31)13(8-30)33-19/h1-2,7,9,13,15-16,19,30-32H,3-6,8H2,(H2,23,25,26)/t13-,15-,16-,19-/m1/s1

> <PUBCHEM_IUPAC_INCHIKEY>
RBTVQGPVQRKBBU-NVQRDWNXSA-N

> <PUBCHEM_XLOGP3>
2.3

> <PUBCHEM_EXACT_MASS>
495.118858

> <PUBCHEM_MOLECULAR_FORMULA>
C20H23Cl2N7O4

> <PUBCHEM_MOLECULAR_WEIGHT>
496.34712

> <PUBCHEM_OPENEYE_CAN_SMILES>
C1CN(CCN1C2=CC(=C(C=C2)Cl)Cl)C3=NC4=C(C(=N3)N)N=CN4C5C(C(C(O5)CO)O)O

> <PUBCHEM_OPENEYE_ISO_SMILES>
C1CN(CCN1C2=CC(=C(C=C2)Cl)Cl)C3=NC4=C(C(=N3)N)N=CN4[C@H]5[C@@H]([C@@H]([C@H](O5)CO)O)O

> <PUBCHEM_CACTVS_TPSA>
146

> <PUBCHEM_MONOISOTOPIC_WEIGHT>
495.118858

> <PUBCHEM_TOTAL_CHARGE>
0

> <PUBCHEM_HEAVY_ATOM_COUNT>
33

> <PUBCHEM_ATOM_DEF_STEREO_COUNT>
4

> <PUBCHEM_ATOM_UDEF_STEREO_COUNT>
0

> <PUBCHEM_BOND_DEF_STEREO_COUNT>
0

> <PUBCHEM_BOND_UDEF_STEREO_COUNT>
0

> <PUBCHEM_ISOTOPIC_ATOM_COUNT>
0

> <PUBCHEM_COMPONENT_COUNT>
1

> <PUBCHEM_CACTVS_TAUTO_COUNT>
3

> <PUBCHEM_COORDINATE_TYPE>
1
5
255

> <PUBCHEM_BONDANNOTATIONS>
10  19  8
10  26  8
11  24  8
11  25  8
12  26  8
12  27  8
17  18  5
19  25  8
25  27  8
28  29  8
28  30  8
29  31  8
30  32  8
31  33  8
32  33  8
15  4  6
16  5  6
14  7  5
7  19  8
7  24  8

$$$$
24944884
  -OEChem-05231305172D

 42 45  0     1  0  0  0  0  0999 V2000
    2.0000   -1.1734    0.0000 F   0  0  0  0  0  0  0  0  0  0  0  0
    3.7320    1.8266    0.0000 F   0  0  0  0  0  0  0  0  0  0  0  0
    7.8666    0.8919    0.0000 O   0  0  0  0  0  0  0  0  0  0  0  0
   10.2126   -0.2000    0.0000 O   0  0  0  0  0  0  0  0  0  0  0  0
   10.2164    1.9756    0.0000 O   0  0  0  0  0  0  0  0  0  0  0  0
    8.8189    3.3934    0.0000 O   0  0  0  0  0  0  0  0  0  0  0  0
    8.1424   -0.8687    0.0000 N   0  0  0  0  0  0  0  0  0  0  0  0
    8.1424   -2.4782    0.0000 N   0  0  0  0  0  0  0  0  0  0  0  0
    6.3301   -0.6734    0.0000 N   0  0  0  0  0  0  0  0  0  0  0  0
    5.4641   -2.1734    0.0000 N   0  0  0  0  0  0  0  0  0  0  0  0
    6.3301   -3.6734    0.0000 N   0  0  0  0  0  0  0  0  0  0  0  0
    9.4046    0.3892    0.0000 C   0  0  1  0  0  0  0  0  0  0  0  0
    8.4530    0.0818    0.0000 C   0  0  1  0  0  0  0  0  0  0  0  0
    9.4064    1.3892    0.0000 C   0  0  1  0  0  0  0  0  0  0  0  0
    8.4558    1.6999    0.0000 C   0  0  1  0  0  0  0  0  0  0  0  0
    8.1485    2.6514    0.0000 C   0  0  0  0  0  0  0  0  0  0  0  0
    7.1962   -1.1734    0.0000 C   0  0  0  0  0  0  0  0  0  0  0  0
    8.7260   -1.6734    0.0000 C   0  0  0  0  0  0  0  0  0  0  0  0
    7.1962   -2.1734    0.0000 C   0  0  0  0  0  0  0  0  0  0  0  0
    6.3301   -2.6734    0.0000 C   0  0  0  0  0  0  0  0  0  0  0  0
    5.4641   -1.1734    0.0000 C   0  0  0  0  0  0  0  0  0  0  0  0
    4.5981   -0.6734    0.0000 C   0  0  0  0  0  0  0  0  0  0  0  0
    4.5981    0.3266    0.0000 C   0  0  0  0  0  0  0  0  0  0  0  0
    3.7320   -1.1734    0.0000 C   0  0  0  0  0  0  0  0  0  0  0  0
    2.8660   -0.6734    0.0000 C   0  0  0  0  0  0  0  0  0  0  0  0
    3.7320    0.8266    0.0000 C   0  0  0  0  0  0  0  0  0  0  0  0
    2.8660    0.3266    0.0000 C   0  0  0  0  0  0  0  0  0  0  0  0
    9.3066   -0.2230    0.0000 H   0  0  0  0  0  0  0  0  0  0  0  0
    7.8405   -0.0141    0.0000 H   0  0  0  0  0  0  0  0  0  0  0  0
    9.9583    1.1068    0.0000 H   0  0  0  0  0  0  0  0  0  0  0  0
    7.8436    1.7979    0.0000 H   0  0  0  0  0  0  0  0  0  0  0  0
    7.7676    3.1407    0.0000 H   0  0  0  0  0  0  0  0  0  0  0  0
    7.6005    2.3613    0.0000 H   0  0  0  0  0  0  0  0  0  0  0  0
   10.7795    0.0512    0.0000 H   0  0  0  0  0  0  0  0  0  0  0  0
   10.7823    1.7224    0.0000 H   0  0  0  0  0  0  0  0  0  0  0  0
    9.3460   -1.6734    0.0000 H   0  0  0  0  0  0  0  0  0  0  0  0
    8.6283    3.9834    0.0000 H   0  0  0  0  0  0  0  0  0  0  0  0
    5.7932   -3.9834    0.0000 H   0  0  0  0  0  0  0  0  0  0  0  0
    6.8671   -3.9834    0.0000 H   0  0  0  0  0  0  0  0  0  0  0  0
    5.1350    0.6366    0.0000 H   0  0  0  0  0  0  0  0  0  0  0  0
    3.7320   -1.7934    0.0000 H   0  0  0  0  0  0  0  0  0  0  0  0
    2.3291    0.6366    0.0000 H   0  0  0  0  0  0  0  0  0  0  0  0
  1 25  1  0  0  0  0
  2 26  1  0  0  0  0
  3 13  1  0  0  0  0
  3 15  1  0  0  0  0
 12  4  1  1  0  0  0
  4 34  1  0  0  0  0
 14  5  1  1  0  0  0
  5 35  1  0  0  0  0
  6 16  1  0  0  0  0
  6 37  1  0  0  0  0
 13  7  1  6  0  0  0
  7 17  1  0  0  0  0
  7 18  1  0  0  0  0
  8 18  2  0  0  0  0
  8 19  1  0  0  0  0
  9 17  2  0  0  0  0
  9 21  1  0  0  0  0
 10 20  1  0  0  0  0
 10 21  2  0  0  0  0
 11 20  1  0  0  0  0
 11 38  1  0  0  0  0
 11 39  1  0  0  0  0
 12 13  1  0  0  0  0
 12 14  1  0  0  0  0
 12 28  1  0  0  0  0
 13 29  1  0  0  0  0
 14 15  1  0  0  0  0
 14 30  1  0  0  0  0
 15 16  1  6  0  0  0
 15 31  1  0  0  0  0
 16 32  1  0  0  0  0
 16 33  1  0  0  0  0
 17 19  1  0  0  0  0
 18 36  1  0  0  0  0
 19 20  2  0  0  0  0
 21 22  1  0  0  0  0
 22 23  2  0  0  0  0
 22 24  1  0  0  0  0
 23 26  1  0  0  0  0
 23 40  1  0  0  0  0
 24 25  2  0  0  0  0
 24 41  1  0  0  0  0
 25 27  1  0  0  0  0
 26 27  2  0  0  0  0
 27 42  1  0  0  0  0
M  END
> <PUBCHEM_COMPOUND_CID>
24944884

> <PUBCHEM_COMPOUND_CANONICALIZED>
1

> <PUBCHEM_CACTVS_COMPLEXITY>
527

> <PUBCHEM_CACTVS_HBOND_ACCEPTOR>
10

> <PUBCHEM_CACTVS_HBOND_DONOR>
4

> <PUBCHEM_CACTVS_ROTATABLE_BOND>
3

> <PUBCHEM_CACTVS_SUBSKEYS>
AAADccB7uYAAAAAAAAAAAAAAAAAAAWJAAAA8QAAAAAAAAFgB/AAAHwAQCAAADBzhnw418L9MFgCgAyZjZACCgC0xEKAB2CAoVJiLeKLA2VGeZAhvgALbiCfwsAIOAAAAAAAAAAAAAAAAAAAAAAAAAAAAAA==

> <PUBCHEM_IUPAC_OPENEYE_NAME>
(2R,3R,4S,5R)-2-[6-amino-2-(3,5-difluorophenyl)purin-9-yl]-5-(hydroxymethyl)tetrahydrofuran-3,4-diol

> <PUBCHEM_IUPAC_CAS_NAME>
(2R,3R,4S,5R)-2-[6-amino-2-(3,5-difluorophenyl)-9-purinyl]-5-(hydroxymethyl)oxolane-3,4-diol

> <PUBCHEM_IUPAC_NAME>
(2R,3R,4S,5R)-2-[6-amino-2-(3,5-difluorophenyl)purin-9-yl]-5-(hydroxymethyl)oxolane-3,4-diol

> <PUBCHEM_IUPAC_SYSTEMATIC_NAME>
(2R,3R,4S,5R)-2-[6-azanyl-2-[3,5-bis(fluoranyl)phenyl]purin-9-yl]-5-(hydroxymethyl)oxolane-3,4-diol

> <PUBCHEM_IUPAC_TRADITIONAL_NAME>
(2R,3R,4S,5R)-2-[6-amino-2-(3,5-difluorophenyl)purin-9-yl]-5-methylol-tetrahydrofuran-3,4-diol

> <PUBCHEM_IUPAC_INCHI>
InChI=1S/C16H15F2N5O4/c17-7-1-6(2-8(18)3-7)14-21-13(19)10-15(22-14)23(5-20-10)16-12(26)11(25)9(4-24)27-16/h1-3,5,9,11-12,16,24-26H,4H2,(H2,19,21,22)/t9-,11-,12-,16-/m1/s1

> <PUBCHEM_IUPAC_INCHIKEY>
KWLMCVOQKMQPEL-UBEDBUPSSA-N

> <PUBCHEM_XLOGP3>
0.8

> <PUBCHEM_EXACT_MASS>
379.10921

> <PUBCHEM_MOLECULAR_FORMULA>
C16H15F2N5O4

> <PUBCHEM_MOLECULAR_WEIGHT>
379.318206

> <PUBCHEM_OPENEYE_CAN_SMILES>
C1=C(C=C(C=C1F)F)C2=NC3=C(C(=N2)N)N=CN3C4C(C(C(O4)CO)O)O

> <PUBCHEM_OPENEYE_ISO_SMILES>
C1=C(C=C(C=C1F)F)C2=NC3=C(C(=N2)N)N=CN3[C@H]4[C@@H]([C@@H]([C@H](O4)CO)O)O

> <PUBCHEM_CACTVS_TPSA>
140

> <PUBCHEM_MONOISOTOPIC_WEIGHT>
379.10921

> <PUBCHEM_TOTAL_CHARGE>
0

> <PUBCHEM_HEAVY_ATOM_COUNT>
27

> <PUBCHEM_ATOM_DEF_STEREO_COUNT>
4

> <PUBCHEM_ATOM_UDEF_STEREO_COUNT>
0

> <PUBCHEM_BOND_DEF_STEREO_COUNT>
0

> <PUBCHEM_BOND_UDEF_STEREO_COUNT>
0

> <PUBCHEM_ISOTOPIC_ATOM_COUNT>
0

> <PUBCHEM_COMPONENT_COUNT>
1

> <PUBCHEM_CACTVS_TAUTO_COUNT>
3

> <PUBCHEM_COORDINATE_TYPE>
1
5
255

> <PUBCHEM_BONDANNOTATIONS>
10  20  8
10  21  8
15  16  6
17  19  8
19  20  8
22  23  8
22  24  8
23  26  8
24  25  8
25  27  8
26  27  8
12  4  5
14  5  5
13  7  6
7  17  8
7  18  8
8  18  8
8  19  8
9  17  8
9  21  8

$$$$
