34952509
  -OEChem-10191221432D

 57 59  0     1  0  0  0  0  0999 V2000
    7.9245   -1.3397    0.0000 O   0  0  0  0  0  0  0  0  0  0  0  0
    9.8349    1.7181    0.0000 N   0  3  0  0  0  0  0  0  0  0  0  0
    7.5673    0.3551    0.0000 N   0  0  0  0  0  0  0  0  0  0  0  0
    4.6783   -4.5184    0.0000 N   0  0  0  0  0  0  0  0  0  0  0  0
    8.8564    1.5118    0.0000 C   0  0  2  0  0  0  0  0  0  0  0  0
    8.1886    2.2561    0.0000 C   0  0  0  0  0  0  0  0  0  0  0  0
    8.5458    0.5613    0.0000 C   0  0  0  0  0  0  0  0  0  0  0  0
   10.8134    1.9243    0.0000 C   0  0  0  0  0  0  0  0  0  0  0  0
   10.0412    0.7395    0.0000 C   0  0  0  0  0  0  0  0  0  0  0  0
    8.4993    3.2066    0.0000 C   0  0  0  0  0  0  0  0  0  0  0  0
    6.2781   -0.8016    0.0000 C   0  0  0  0  0  0  0  0  0  0  0  0
    5.9674   -1.7522    0.0000 C   0  0  0  0  0  0  0  0  0  0  0  0
    7.2566   -0.5954    0.0000 C   0  0  0  0  0  0  0  0  0  0  0  0
    4.9889   -1.9584    0.0000 C   0  0  0  0  0  0  0  0  0  0  0  0
    4.6783   -2.9089    0.0000 C   0  0  0  0  0  0  0  0  0  0  0  0
    9.4778    3.4129    0.0000 C   0  0  0  0  0  0  0  0  0  0  0  0
    7.8314    3.9510    0.0000 C   0  0  0  0  0  0  0  0  0  0  0  0
    3.7321   -3.2136    0.0000 C   0  0  0  0  0  0  0  0  0  0  0  0
    3.7321   -4.2136    0.0000 C   0  0  0  0  0  0  0  0  0  0  0  0
    5.2619   -3.7136    0.0000 C   0  0  0  0  0  0  0  0  0  0  0  0
    9.7884    4.3634    0.0000 C   0  0  0  0  0  0  0  0  0  0  0  0
    8.1421    4.9015    0.0000 C   0  0  0  0  0  0  0  0  0  0  0  0
    2.8660   -2.7136    0.0000 C   0  0  0  0  0  0  0  0  0  0  0  0
    9.1206    5.1077    0.0000 C   0  0  0  0  0  0  0  0  0  0  0  0
    2.8660   -4.7136    0.0000 C   0  0  0  0  0  0  0  0  0  0  0  0
    2.0000   -3.2136    0.0000 C   0  0  0  0  0  0  0  0  0  0  0  0
    2.0000   -4.2136    0.0000 C   0  0  0  0  0  0  0  0  0  0  0  0
    9.0491    2.1012    0.0000 H   0  0  0  0  0  0  0  0  0  0  0  0
    9.7071    2.3247    0.0000 H   0  0  0  0  0  0  0  0  0  0  0  0
    7.6417    2.5482    0.0000 H   0  0  0  0  0  0  0  0  0  0  0  0
    7.8060    1.7682    0.0000 H   0  0  0  0  0  0  0  0  0  0  0  0
    8.5663   -0.0583    0.0000 H   0  0  0  0  0  0  0  0  0  0  0  0
    9.1596    0.4740    0.0000 H   0  0  0  0  0  0  0  0  0  0  0  0
   10.9413    1.3176    0.0000 H   0  0  0  0  0  0  0  0  0  0  0  0
   11.4201    2.0521    0.0000 H   0  0  0  0  0  0  0  0  0  0  0  0
   10.6856    2.5309    0.0000 H   0  0  0  0  0  0  0  0  0  0  0  0
    9.4345    0.6117    0.0000 H   0  0  0  0  0  0  0  0  0  0  0  0
   10.1690    0.1329    0.0000 H   0  0  0  0  0  0  0  0  0  0  0  0
   10.6478    0.8674    0.0000 H   0  0  0  0  0  0  0  0  0  0  0  0
    7.1532    0.8166    0.0000 H   0  0  0  0  0  0  0  0  0  0  0  0
    6.2575   -0.1820    0.0000 H   0  0  0  0  0  0  0  0  0  0  0  0
    5.6643   -0.7143    0.0000 H   0  0  0  0  0  0  0  0  0  0  0  0
    5.9880   -2.3718    0.0000 H   0  0  0  0  0  0  0  0  0  0  0  0
    6.5813   -1.8395    0.0000 H   0  0  0  0  0  0  0  0  0  0  0  0
    4.9684   -1.3387    0.0000 H   0  0  0  0  0  0  0  0  0  0  0  0
    4.3751   -1.8710    0.0000 H   0  0  0  0  0  0  0  0  0  0  0  0
    9.8918    2.9514    0.0000 H   0  0  0  0  0  0  0  0  0  0  0  0
    7.2247    3.8231    0.0000 H   0  0  0  0  0  0  0  0  0  0  0  0
    5.8819   -3.7136    0.0000 H   0  0  0  0  0  0  0  0  0  0  0  0
   10.3951    4.4913    0.0000 H   0  0  0  0  0  0  0  0  0  0  0  0
    7.7280    5.3629    0.0000 H   0  0  0  0  0  0  0  0  0  0  0  0
    4.8709   -5.1077    0.0000 H   0  0  0  0  0  0  0  0  0  0  0  0
    2.8660   -2.0936    0.0000 H   0  0  0  0  0  0  0  0  0  0  0  0
    9.3132    5.6970    0.0000 H   0  0  0  0  0  0  0  0  0  0  0  0
    2.8660   -5.3336    0.0000 H   0  0  0  0  0  0  0  0  0  0  0  0
    1.4631   -2.9036    0.0000 H   0  0  0  0  0  0  0  0  0  0  0  0
    1.4631   -4.5236    0.0000 H   0  0  0  0  0  0  0  0  0  0  0  0
  1 13  2  0  0  0  0
  5  2  1  1  0  0  0
  2  8  1  0  0  0  0
  2  9  1  0  0  0  0
  2 29  1  0  0  0  0
  3  7  1  0  0  0  0
  3 13  1  0  0  0  0
  3 40  1  0  0  0  0
  4 19  1  0  0  0  0
  4 20  1  0  0  0  0
  4 52  1  0  0  0  0
  5  6  1  0  0  0  0
  5  7  1  0  0  0  0
  5 28  1  0  0  0  0
  6 10  1  0  0  0  0
  6 30  1  0  0  0  0
  6 31  1  0  0  0  0
  7 32  1  0  0  0  0
  7 33  1  0  0  0  0
  8 34  1  0  0  0  0
  8 35  1  0  0  0  0
  8 36  1  0  0  0  0
  9 37  1  0  0  0  0
  9 38  1  0  0  0  0
  9 39  1  0  0  0  0
 10 16  2  0  0  0  0
 10 17  1  0  0  0  0
 11 12  1  0  0  0  0
 11 13  1  0  0  0  0
 11 41  1  0  0  0  0
 11 42  1  0  0  0  0
 12 14  1  0  0  0  0
 12 43  1  0  0  0  0
 12 44  1  0  0  0  0
 14 15  1  0  0  0  0
 14 45  1  0  0  0  0
 14 46  1  0  0  0  0
 15 18  1  0  0  0  0
 15 20  2  0  0  0  0
 16 21  1  0  0  0  0
 16 47  1  0  0  0  0
 17 22  2  0  0  0  0
 17 48  1  0  0  0  0
 18 19  1  0  0  0  0
 18 23  2  0  0  0  0
 19 25  2  0  0  0  0
 20 49  1  0  0  0  0
 21 24  2  0  0  0  0
 21 50  1  0  0  0  0
 22 24  1  0  0  0  0
 22 51  1  0  0  0  0
 23 26  1  0  0  0  0
 23 53  1  0  0  0  0
 24 54  1  0  0  0  0
 25 27  1  0  0  0  0
 25 55  1  0  0  0  0
 26 27  2  0  0  0  0
 26 56  1  0  0  0  0
 27 57  1  0  0  0  0
M  CHG  1   2   1
M  END
> <PUBCHEM_COMPOUND_CID>
34952509

> <PUBCHEM_COMPOUND_CANONICALIZED>
1

> <PUBCHEM_CACTVS_COMPLEXITY>
447

> <PUBCHEM_CACTVS_HBOND_ACCEPTOR>
1

> <PUBCHEM_CACTVS_HBOND_DONOR>
3

> <PUBCHEM_CACTVS_ROTATABLE_BOND>
9

> <PUBCHEM_CACTVS_SUBSKEYS>
AAADceB7IAAAAAAAAAAAAAAAAAAAAWAAAAAwYAAAAAAAAFgB9AAAHgAQAAAADCjBngQ+wPPJkACoAzV3VACCgCAxAiAI2aE4ZJgIYPLAkZGUIAhglgDIyAcYiMCOgAAAAAACAAAAAAAAAAQAAAAAAAAAAA==

> <PUBCHEM_IUPAC_OPENEYE_NAME>
[(1R)-1-benzyl-2-[4-(1H-indol-3-yl)butanoylamino]ethyl]-dimethyl-ammonium

> <PUBCHEM_IUPAC_CAS_NAME>
[(2R)-1-[[4-(1H-indol-3-yl)-1-oxobutyl]amino]-3-phenylpropan-2-yl]-dimethylammonium

> <PUBCHEM_IUPAC_NAME>
[(2R)-1-[4-(1H-indol-3-yl)butanoylamino]-3-phenylpropan-2-yl]-dimethylazanium

> <PUBCHEM_IUPAC_SYSTEMATIC_NAME>
[(2R)-1-[4-(1H-indol-3-yl)butanoylamino]-3-phenyl-propan-2-yl]-dimethyl-azanium

> <PUBCHEM_IUPAC_TRADITIONAL_NAME>
[(1R)-1-benzyl-2-[4-(1H-indol-3-yl)butanoylamino]ethyl]-dimethyl-ammonium

> <PUBCHEM_IUPAC_INCHI>
InChI=1S/C23H29N3O/c1-26(2)20(15-18-9-4-3-5-10-18)17-25-23(27)14-8-11-19-16-24-22-13-7-6-12-21(19)22/h3-7,9-10,12-13,16,20,24H,8,11,14-15,17H2,1-2H3,(H,25,27)/p+1/t20-/m1/s1

> <PUBCHEM_IUPAC_INCHIKEY>
ZHGRSKGNJRFCQC-HXUWFJFHSA-O

> <PUBCHEM_XLOGP3>
4.1

> <PUBCHEM_EXACT_MASS>
364.238888

> <PUBCHEM_MOLECULAR_FORMULA>
C23H30N3O+

> <PUBCHEM_MOLECULAR_WEIGHT>
364.5038

> <PUBCHEM_OPENEYE_CAN_SMILES>
C[NH+](C)C(CC1=CC=CC=C1)CNC(=O)CCCC2=CNC3=CC=CC=C32

> <PUBCHEM_OPENEYE_ISO_SMILES>
C[NH+](C)[C@H](CC1=CC=CC=C1)CNC(=O)CCCC2=CNC3=CC=CC=C32

> <PUBCHEM_CACTVS_TPSA>
49.3

> <PUBCHEM_MONOISOTOPIC_WEIGHT>
364.238888

> <PUBCHEM_TOTAL_CHARGE>
1

> <PUBCHEM_HEAVY_ATOM_COUNT>
27

> <PUBCHEM_ATOM_DEF_STEREO_COUNT>
1

> <PUBCHEM_ATOM_UDEF_STEREO_COUNT>
0

> <PUBCHEM_BOND_DEF_STEREO_COUNT>
0

> <PUBCHEM_BOND_UDEF_STEREO_COUNT>
0

> <PUBCHEM_ISOTOPIC_ATOM_COUNT>
0

> <PUBCHEM_COMPONENT_COUNT>
1

> <PUBCHEM_CACTVS_TAUTO_COUNT>
2

> <PUBCHEM_COORDINATE_TYPE>
1
5
255

> <PUBCHEM_BONDANNOTATIONS>
10  16  8
10  17  8
15  18  8
15  20  8
16  21  8
17  22  8
18  19  8
18  23  8
19  25  8
5  2  5
21  24  8
22  24  8
23  26  8
25  27  8
26  27  8
4  19  8
4  20  8

$$$$
34952516
  -OEChem-10191221432D

 57 59  0     1  0  0  0  0  0999 V2000
    7.9245   -1.3397    0.0000 O   0  0  0  0  0  0  0  0  0  0  0  0
    9.8349    1.7181    0.0000 N   0  3  0  0  0  0  0  0  0  0  0  0
    7.5673    0.3551    0.0000 N   0  0  0  0  0  0  0  0  0  0  0  0
    4.6783   -4.5184    0.0000 N   0  0  0  0  0  0  0  0  0  0  0  0
    8.8564    1.5118    0.0000 C   0  0  1  0  0  0  0  0  0  0  0  0
    8.1886    2.2561    0.0000 C   0  0  0  0  0  0  0  0  0  0  0  0
    8.5458    0.5613    0.0000 C   0  0  0  0  0  0  0  0  0  0  0  0
   10.8134    1.9243    0.0000 C   0  0  0  0  0  0  0  0  0  0  0  0
   10.0412    0.7395    0.0000 C   0  0  0  0  0  0  0  0  0  0  0  0
    8.4993    3.2066    0.0000 C   0  0  0  0  0  0  0  0  0  0  0  0
    6.2781   -0.8016    0.0000 C   0  0  0  0  0  0  0  0  0  0  0  0
    5.9674   -1.7522    0.0000 C   0  0  0  0  0  0  0  0  0  0  0  0
    7.2566   -0.5954    0.0000 C   0  0  0  0  0  0  0  0  0  0  0  0
    4.9889   -1.9584    0.0000 C   0  0  0  0  0  0  0  0  0  0  0  0
    4.6783   -2.9089    0.0000 C   0  0  0  0  0  0  0  0  0  0  0  0
    9.4778    3.4129    0.0000 C   0  0  0  0  0  0  0  0  0  0  0  0
    7.8314    3.9510    0.0000 C   0  0  0  0  0  0  0  0  0  0  0  0
    3.7321   -3.2136    0.0000 C   0  0  0  0  0  0  0  0  0  0  0  0
    3.7321   -4.2136    0.0000 C   0  0  0  0  0  0  0  0  0  0  0  0
    5.2619   -3.7136    0.0000 C   0  0  0  0  0  0  0  0  0  0  0  0
    9.7884    4.3634    0.0000 C   0  0  0  0  0  0  0  0  0  0  0  0
    8.1421    4.9015    0.0000 C   0  0  0  0  0  0  0  0  0  0  0  0
    2.8660   -2.7136    0.0000 C   0  0  0  0  0  0  0  0  0  0  0  0
    9.1206    5.1077    0.0000 C   0  0  0  0  0  0  0  0  0  0  0  0
    2.8660   -4.7136    0.0000 C   0  0  0  0  0  0  0  0  0  0  0  0
    2.0000   -3.2136    0.0000 C   0  0  0  0  0  0  0  0  0  0  0  0
    2.0000   -4.2136    0.0000 C   0  0  0  0  0  0  0  0  0  0  0  0
    9.0491    2.1012    0.0000 H   0  0  0  0  0  0  0  0  0  0  0  0
    9.7071    2.3247    0.0000 H   0  0  0  0  0  0  0  0  0  0  0  0
    7.6417    2.5482    0.0000 H   0  0  0  0  0  0  0  0  0  0  0  0
    7.8060    1.7682    0.0000 H   0  0  0  0  0  0  0  0  0  0  0  0
    8.5663   -0.0583    0.0000 H   0  0  0  0  0  0  0  0  0  0  0  0
    9.1596    0.4740    0.0000 H   0  0  0  0  0  0  0  0  0  0  0  0
   10.9413    1.3176    0.0000 H   0  0  0  0  0  0  0  0  0  0  0  0
   11.4201    2.0521    0.0000 H   0  0  0  0  0  0  0  0  0  0  0  0
   10.6856    2.5309    0.0000 H   0  0  0  0  0  0  0  0  0  0  0  0
    9.4345    0.6117    0.0000 H   0  0  0  0  0  0  0  0  0  0  0  0
   10.1690    0.1329    0.0000 H   0  0  0  0  0  0  0  0  0  0  0  0
   10.6478    0.8674    0.0000 H   0  0  0  0  0  0  0  0  0  0  0  0
    7.1532    0.8166    0.0000 H   0  0  0  0  0  0  0  0  0  0  0  0
    6.2575   -0.1820    0.0000 H   0  0  0  0  0  0  0  0  0  0  0  0
    5.6643   -0.7143    0.0000 H   0  0  0  0  0  0  0  0  0  0  0  0
    5.9880   -2.3718    0.0000 H   0  0  0  0  0  0  0  0  0  0  0  0
    6.5813   -1.8395    0.0000 H   0  0  0  0  0  0  0  0  0  0  0  0
    4.9684   -1.3387    0.0000 H   0  0  0  0  0  0  0  0  0  0  0  0
    4.3751   -1.8710    0.0000 H   0  0  0  0  0  0  0  0  0  0  0  0
    9.8918    2.9514    0.0000 H   0  0  0  0  0  0  0  0  0  0  0  0
    7.2247    3.8231    0.0000 H   0  0  0  0  0  0  0  0  0  0  0  0
    5.8819   -3.7136    0.0000 H   0  0  0  0  0  0  0  0  0  0  0  0
   10.3951    4.4913    0.0000 H   0  0  0  0  0  0  0  0  0  0  0  0
    7.7280    5.3629    0.0000 H   0  0  0  0  0  0  0  0  0  0  0  0
    4.8709   -5.1077    0.0000 H   0  0  0  0  0  0  0  0  0  0  0  0
    2.8660   -2.0936    0.0000 H   0  0  0  0  0  0  0  0  0  0  0  0
    9.3132    5.6970    0.0000 H   0  0  0  0  0  0  0  0  0  0  0  0
    2.8660   -5.3336    0.0000 H   0  0  0  0  0  0  0  0  0  0  0  0
    1.4631   -2.9036    0.0000 H   0  0  0  0  0  0  0  0  0  0  0  0
    1.4631   -4.5236    0.0000 H   0  0  0  0  0  0  0  0  0  0  0  0
  1 13  2  0  0  0  0
  5  2  1  6  0  0  0
  2  8  1  0  0  0  0
  2  9  1  0  0  0  0
  2 29  1  0  0  0  0
  3  7  1  0  0  0  0
  3 13  1  0  0  0  0
  3 40  1  0  0  0  0
  4 19  1  0  0  0  0
  4 20  1  0  0  0  0
  4 52  1  0  0  0  0
  5  6  1  0  0  0  0
  5  7  1  0  0  0  0
  5 28  1  0  0  0  0
  6 10  1  0  0  0  0
  6 30  1  0  0  0  0
  6 31  1  0  0  0  0
  7 32  1  0  0  0  0
  7 33  1  0  0  0  0
  8 34  1  0  0  0  0
  8 35  1  0  0  0  0
  8 36  1  0  0  0  0
  9 37  1  0  0  0  0
  9 38  1  0  0  0  0
  9 39  1  0  0  0  0
 10 16  2  0  0  0  0
 10 17  1  0  0  0  0
 11 12  1  0  0  0  0
 11 13  1  0  0  0  0
 11 41  1  0  0  0  0
 11 42  1  0  0  0  0
 12 14  1  0  0  0  0
 12 43  1  0  0  0  0
 12 44  1  0  0  0  0
 14 15  1  0  0  0  0
 14 45  1  0  0  0  0
 14 46  1  0  0  0  0
 15 18  1  0  0  0  0
 15 20  2  0  0  0  0
 16 21  1  0  0  0  0
 16 47  1  0  0  0  0
 17 22  2  0  0  0  0
 17 48  1  0  0  0  0
 18 19  1  0  0  0  0
 18 23  2  0  0  0  0
 19 25  2  0  0  0  0
 20 49  1  0  0  0  0
 21 24  2  0  0  0  0
 21 50  1  0  0  0  0
 22 24  1  0  0  0  0
 22 51  1  0  0  0  0
 23 26  1  0  0  0  0
 23 53  1  0  0  0  0
 24 54  1  0  0  0  0
 25 27  1  0  0  0  0
 25 55  1  0  0  0  0
 26 27  2  0  0  0  0
 26 56  1  0  0  0  0
 27 57  1  0  0  0  0
M  CHG  1   2   1
M  END
> <PUBCHEM_COMPOUND_CID>
34952516

> <PUBCHEM_COMPOUND_CANONICALIZED>
1

> <PUBCHEM_CACTVS_COMPLEXITY>
447

> <PUBCHEM_CACTVS_HBOND_ACCEPTOR>
1

> <PUBCHEM_CACTVS_HBOND_DONOR>
3

> <PUBCHEM_CACTVS_ROTATABLE_BOND>
9

> <PUBCHEM_CACTVS_SUBSKEYS>
AAADceB7IAAAAAAAAAAAAAAAAAAAAWAAAAAwYAAAAAAAAFgB9AAAHgAQAAAADCjBngQ+wPPJkACoAzV3VACCgCAxAiAI2aE4ZJgIYPLAkZGUIAhglgDIyAcYiMCOgAAAAAACAAAAAAAAAAQAAAAAAAAAAA==

> <PUBCHEM_IUPAC_OPENEYE_NAME>
[(1S)-1-benzyl-2-[4-(1H-indol-3-yl)butanoylamino]ethyl]-dimethyl-ammonium

> <PUBCHEM_IUPAC_CAS_NAME>
[(2S)-1-[[4-(1H-indol-3-yl)-1-oxobutyl]amino]-3-phenylpropan-2-yl]-dimethylammonium

> <PUBCHEM_IUPAC_NAME>
[(2S)-1-[4-(1H-indol-3-yl)butanoylamino]-3-phenylpropan-2-yl]-dimethylazanium

> <PUBCHEM_IUPAC_SYSTEMATIC_NAME>
[(2S)-1-[4-(1H-indol-3-yl)butanoylamino]-3-phenyl-propan-2-yl]-dimethyl-azanium

> <PUBCHEM_IUPAC_TRADITIONAL_NAME>
[(1S)-1-benzyl-2-[4-(1H-indol-3-yl)butanoylamino]ethyl]-dimethyl-ammonium

> <PUBCHEM_IUPAC_INCHI>
InChI=1S/C23H29N3O/c1-26(2)20(15-18-9-4-3-5-10-18)17-25-23(27)14-8-11-19-16-24-22-13-7-6-12-21(19)22/h3-7,9-10,12-13,16,20,24H,8,11,14-15,17H2,1-2H3,(H,25,27)/p+1/t20-/m0/s1

> <PUBCHEM_IUPAC_INCHIKEY>
ZHGRSKGNJRFCQC-FQEVSTJZSA-O

> <PUBCHEM_XLOGP3>
4.1

> <PUBCHEM_EXACT_MASS>
364.238888

> <PUBCHEM_MOLECULAR_FORMULA>
C23H30N3O+

> <PUBCHEM_MOLECULAR_WEIGHT>
364.5038

> <PUBCHEM_OPENEYE_CAN_SMILES>
C[NH+](C)C(CC1=CC=CC=C1)CNC(=O)CCCC2=CNC3=CC=CC=C32

> <PUBCHEM_OPENEYE_ISO_SMILES>
C[NH+](C)[C@@H](CC1=CC=CC=C1)CNC(=O)CCCC2=CNC3=CC=CC=C32

> <PUBCHEM_CACTVS_TPSA>
49.3

> <PUBCHEM_MONOISOTOPIC_WEIGHT>
364.238888

> <PUBCHEM_TOTAL_CHARGE>
1

> <PUBCHEM_HEAVY_ATOM_COUNT>
27

> <PUBCHEM_ATOM_DEF_STEREO_COUNT>
1

> <PUBCHEM_ATOM_UDEF_STEREO_COUNT>
0

> <PUBCHEM_BOND_DEF_STEREO_COUNT>
0

> <PUBCHEM_BOND_UDEF_STEREO_COUNT>
0

> <PUBCHEM_ISOTOPIC_ATOM_COUNT>
0

> <PUBCHEM_COMPONENT_COUNT>
1

> <PUBCHEM_CACTVS_TAUTO_COUNT>
2

> <PUBCHEM_COORDINATE_TYPE>
1
5
255

> <PUBCHEM_BONDANNOTATIONS>
10  16  8
10  17  8
15  18  8
15  20  8
16  21  8
17  22  8
18  19  8
18  23  8
19  25  8
5  2  6
21  24  8
22  24  8
23  26  8
25  27  8
26  27  8
4  19  8
4  20  8

$$$$
