24609362
  -OEChem-11301217362D

 35 37  0     0  0  0  0  0  0999 V2000
    6.2619   -0.6815    0.0000 O   0  0  0  0  0  0  0  0  0  0  0  0
    4.6783    0.1233    0.0000 N   0  0  0  0  0  0  0  0  0  0  0  0
    4.6783   -1.4862    0.0000 N   0  0  0  0  0  0  0  0  0  0  0  0
    3.7320   -0.1815    0.0000 C   0  0  0  0  0  0  0  0  0  0  0  0
    3.7320   -1.1815    0.0000 C   0  0  0  0  0  0  0  0  0  0  0  0
    4.9889    1.0738    0.0000 C   0  0  0  0  0  0  0  0  0  0  0  0
    5.2619   -0.6815    0.0000 C   0  0  0  0  0  0  0  0  0  0  0  0
    5.9674    1.2800    0.0000 C   0  0  0  0  0  0  0  0  0  0  0  0
    2.8660    0.3185    0.0000 C   0  0  0  0  0  0  0  0  0  0  0  0
    2.8660   -1.6815    0.0000 C   0  0  0  0  0  0  0  0  0  0  0  0
    4.9889   -2.4367    0.0000 C   0  0  0  0  0  0  0  0  0  0  0  0
    2.0000   -0.1815    0.0000 C   0  0  0  0  0  0  0  0  0  0  0  0
    6.6353    0.5357    0.0000 C   0  0  0  0  0  0  0  0  0  0  0  0
    6.2781    2.2305    0.0000 C   0  0  0  0  0  0  0  0  0  0  0  0
    2.0000   -1.1815    0.0000 C   0  0  0  0  0  0  0  0  0  0  0  0
    7.9244    1.6924    0.0000 C   0  0  0  0  0  0  0  0  0  0  0  0
    7.6138    0.7419    0.0000 C   0  0  0  0  0  0  0  0  0  0  0  0
    7.2566    2.4367    0.0000 C   0  0  0  0  0  0  0  0  0  0  0  0
    8.9030    1.8986    0.0000 C   0  0  0  0  0  0  0  0  0  0  0  0
    4.9684    1.6934    0.0000 H   0  0  0  0  0  0  0  0  0  0  0  0
    4.3751    1.1611    0.0000 H   0  0  0  0  0  0  0  0  0  0  0  0
    2.8660    0.9385    0.0000 H   0  0  0  0  0  0  0  0  0  0  0  0
    2.8660   -2.3015    0.0000 H   0  0  0  0  0  0  0  0  0  0  0  0
    4.3996   -2.6293    0.0000 H   0  0  0  0  0  0  0  0  0  0  0  0
    5.1815   -3.0260    0.0000 H   0  0  0  0  0  0  0  0  0  0  0  0
    5.5783   -2.2441    0.0000 H   0  0  0  0  0  0  0  0  0  0  0  0
    1.4631    0.1285    0.0000 H   0  0  0  0  0  0  0  0  0  0  0  0
    6.4427   -0.0536    0.0000 H   0  0  0  0  0  0  0  0  0  0  0  0
    5.8640    2.6920    0.0000 H   0  0  0  0  0  0  0  0  0  0  0  0
    1.4631   -1.4915    0.0000 H   0  0  0  0  0  0  0  0  0  0  0  0
    8.0279    0.2804    0.0000 H   0  0  0  0  0  0  0  0  0  0  0  0
    7.4492    3.0260    0.0000 H   0  0  0  0  0  0  0  0  0  0  0  0
    9.0308    1.2920    0.0000 H   0  0  0  0  0  0  0  0  0  0  0  0
    9.5096    2.0265    0.0000 H   0  0  0  0  0  0  0  0  0  0  0  0
    8.7751    2.5053    0.0000 H   0  0  0  0  0  0  0  0  0  0  0  0
  1  7  2  0  0  0  0
  2  4  1  0  0  0  0
  2  6  1  0  0  0  0
  2  7  1  0  0  0  0
  3  5  1  0  0  0  0
  3  7  1  0  0  0  0
  3 11  1  0  0  0  0
  4  5  1  0  0  0  0
  4  9  2  0  0  0  0
  5 10  2  0  0  0  0
  6  8  1  0  0  0  0
  6 20  1  0  0  0  0
  6 21  1  0  0  0  0
  8 13  2  0  0  0  0
  8 14  1  0  0  0  0
  9 12  1  0  0  0  0
  9 22  1  0  0  0  0
 10 15  1  0  0  0  0
 10 23  1  0  0  0  0
 11 24  1  0  0  0  0
 11 25  1  0  0  0  0
 11 26  1  0  0  0  0
 12 15  2  0  0  0  0
 12 27  1  0  0  0  0
 13 17  1  0  0  0  0
 13 28  1  0  0  0  0
 14 18  2  0  0  0  0
 14 29  1  0  0  0  0
 15 30  1  0  0  0  0
 16 17  2  0  0  0  0
 16 18  1  0  0  0  0
 16 19  1  0  0  0  0
 17 31  1  0  0  0  0
 18 32  1  0  0  0  0
 19 33  1  0  0  0  0
 19 34  1  0  0  0  0
 19 35  1  0  0  0  0
M  END
> <PUBCHEM_COMPOUND_CID>
24609362

> <PUBCHEM_COMPOUND_CANONICALIZED>
1

> <PUBCHEM_CACTVS_COMPLEXITY>
336

> <PUBCHEM_CACTVS_HBOND_ACCEPTOR>
1

> <PUBCHEM_CACTVS_HBOND_DONOR>
0

> <PUBCHEM_CACTVS_ROTATABLE_BOND>
2

> <PUBCHEM_CACTVS_SUBSKEYS>
AAADceB7IAAAAAAAAAAAAAAAAAAAAWAAAAAwYAAAAAAAAFgBQAAAHgAAAAAADAjBGAQzwIMAAACIAiRCUACCAAAhAgAIiAAIdIiIYCLAkZGUIAhohgLIyCcQgAAOQAAAAAAAACCAAAAAAAAAQAAAAAAAAA==

> <PUBCHEM_IUPAC_OPENEYE_NAME>
1-methyl-3-(p-tolylmethyl)benzimidazol-2-one

> <PUBCHEM_IUPAC_CAS_NAME>
1-methyl-3-[(4-methylphenyl)methyl]-2-benzimidazolone

> <PUBCHEM_IUPAC_NAME>
1-methyl-3-[(4-methylphenyl)methyl]benzimidazol-2-one

> <PUBCHEM_IUPAC_SYSTEMATIC_NAME>
1-methyl-3-[(4-methylphenyl)methyl]benzimidazol-2-one

> <PUBCHEM_IUPAC_TRADITIONAL_NAME>
1-methyl-3-(4-methylbenzyl)benzimidazol-2-one

> <PUBCHEM_IUPAC_INCHI>
InChI=1S/C16H16N2O/c1-12-7-9-13(10-8-12)11-18-15-6-4-3-5-14(15)17(2)16(18)19/h3-10H,11H2,1-2H3

> <PUBCHEM_IUPAC_INCHIKEY>
RFKXJYAHVZSHAN-UHFFFAOYSA-N

> <PUBCHEM_XLOGP3>
3.3

> <PUBCHEM_EXACT_MASS>
252.126263

> <PUBCHEM_MOLECULAR_FORMULA>
C16H16N2O

> <PUBCHEM_MOLECULAR_WEIGHT>
252.31104

> <PUBCHEM_OPENEYE_CAN_SMILES>
CC1=CC=C(C=C1)CN2C3=CC=CC=C3N(C2=O)C

> <PUBCHEM_OPENEYE_ISO_SMILES>
CC1=CC=C(C=C1)CN2C3=CC=CC=C3N(C2=O)C

> <PUBCHEM_CACTVS_TPSA>
23.6

> <PUBCHEM_MONOISOTOPIC_WEIGHT>
252.126263

> <PUBCHEM_TOTAL_CHARGE>
0

> <PUBCHEM_HEAVY_ATOM_COUNT>
19

> <PUBCHEM_ATOM_DEF_STEREO_COUNT>
0

> <PUBCHEM_ATOM_UDEF_STEREO_COUNT>
0

> <PUBCHEM_BOND_DEF_STEREO_COUNT>
0

> <PUBCHEM_BOND_UDEF_STEREO_COUNT>
0

> <PUBCHEM_ISOTOPIC_ATOM_COUNT>
0

> <PUBCHEM_COMPONENT_COUNT>
1

> <PUBCHEM_CACTVS_TAUTO_COUNT>
1

> <PUBCHEM_COORDINATE_TYPE>
1
5
255

> <PUBCHEM_BONDANNOTATIONS>
10  15  8
12  15  8
13  17  8
14  18  8
16  17  8
16  18  8
2  4  8
2  7  8
3  5  8
3  7  8
4  5  8
4  9  8
5  10  8
8  13  8
8  14  8
9  12  8

$$$$
24609426
  -OEChem-11301217362D

 38 40  0     0  0  0  0  0  0999 V2000
    6.2619   -1.1567    0.0000 O   0  0  0  0  0  0  0  0  0  0  0  0
    4.6783   -0.3520    0.0000 N   0  0  0  0  0  0  0  0  0  0  0  0
    4.6783   -1.9615    0.0000 N   0  0  0  0  0  0  0  0  0  0  0  0
    3.7320   -0.6567    0.0000 C   0  0  0  0  0  0  0  0  0  0  0  0
    4.9889    0.5985    0.0000 C   0  0  0  0  0  0  0  0  0  0  0  0
    3.7320   -1.6567    0.0000 C   0  0  0  0  0  0  0  0  0  0  0  0
    5.2619   -1.1567    0.0000 C   0  0  0  0  0  0  0  0  0  0  0  0
    5.9674    0.8047    0.0000 C   0  0  0  0  0  0  0  0  0  0  0  0
    2.8660   -0.1567    0.0000 C   0  0  0  0  0  0  0  0  0  0  0  0
    2.8660   -2.1567    0.0000 C   0  0  0  0  0  0  0  0  0  0  0  0
    6.6353    0.0604    0.0000 C   0  0  0  0  0  0  0  0  0  0  0  0
    6.2781    1.7552    0.0000 C   0  0  0  0  0  0  0  0  0  0  0  0
    4.9889   -2.9120    0.0000 C   0  0  0  0  0  0  0  0  0  0  0  0
    7.6138    0.2666    0.0000 C   0  0  0  0  0  0  0  0  0  0  0  0
    7.2566    1.9615    0.0000 C   0  0  0  0  0  0  0  0  0  0  0  0
    2.0000   -0.6567    0.0000 C   0  0  0  0  0  0  0  0  0  0  0  0
    2.0000   -1.6567    0.0000 C   0  0  0  0  0  0  0  0  0  0  0  0
    7.9244    1.2172    0.0000 C   0  0  0  0  0  0  0  0  0  0  0  0
    8.2816   -0.4777    0.0000 C   0  0  0  0  0  0  0  0  0  0  0  0
    7.5673    2.9120    0.0000 C   0  0  0  0  0  0  0  0  0  0  0  0
    4.9684    1.2182    0.0000 H   0  0  0  0  0  0  0  0  0  0  0  0
    4.3751    0.6859    0.0000 H   0  0  0  0  0  0  0  0  0  0  0  0
    2.8660    0.4633    0.0000 H   0  0  0  0  0  0  0  0  0  0  0  0
    2.8660   -2.7767    0.0000 H   0  0  0  0  0  0  0  0  0  0  0  0
    6.4427   -0.5289    0.0000 H   0  0  0  0  0  0  0  0  0  0  0  0
    5.8640    2.2167    0.0000 H   0  0  0  0  0  0  0  0  0  0  0  0
    4.3996   -3.1046    0.0000 H   0  0  0  0  0  0  0  0  0  0  0  0
    5.1815   -3.5013    0.0000 H   0  0  0  0  0  0  0  0  0  0  0  0
    5.5783   -2.7194    0.0000 H   0  0  0  0  0  0  0  0  0  0  0  0
    1.4631   -0.3467    0.0000 H   0  0  0  0  0  0  0  0  0  0  0  0
    1.4631   -1.9667    0.0000 H   0  0  0  0  0  0  0  0  0  0  0  0
    8.5311    1.3450    0.0000 H   0  0  0  0  0  0  0  0  0  0  0  0
    7.8202   -0.8917    0.0000 H   0  0  0  0  0  0  0  0  0  0  0  0
    8.6957   -0.9391    0.0000 H   0  0  0  0  0  0  0  0  0  0  0  0
    8.7431   -0.0636    0.0000 H   0  0  0  0  0  0  0  0  0  0  0  0
    8.1566    2.7194    0.0000 H   0  0  0  0  0  0  0  0  0  0  0  0
    7.7599    3.5013    0.0000 H   0  0  0  0  0  0  0  0  0  0  0  0
    6.9780    3.1046    0.0000 H   0  0  0  0  0  0  0  0  0  0  0  0
  1  7  2  0  0  0  0
  2  4  1  0  0  0  0
  2  5  1  0  0  0  0
  2  7  1  0  0  0  0
  3  6  1  0  0  0  0
  3  7  1  0  0  0  0
  3 13  1  0  0  0  0
  4  6  1  0  0  0  0
  4  9  2  0  0  0  0
  5  8  1  0  0  0  0
  5 21  1  0  0  0  0
  5 22  1  0  0  0  0
  6 10  2  0  0  0  0
  8 11  2  0  0  0  0
  8 12  1  0  0  0  0
  9 16  1  0  0  0  0
  9 23  1  0  0  0  0
 10 17  1  0  0  0  0
 10 24  1  0  0  0  0
 11 14  1  0  0  0  0
 11 25  1  0  0  0  0
 12 15  2  0  0  0  0
 12 26  1  0  0  0  0
 13 27  1  0  0  0  0
 13 28  1  0  0  0  0
 13 29  1  0  0  0  0
 14 18  2  0  0  0  0
 14 19  1  0  0  0  0
 15 18  1  0  0  0  0
 15 20  1  0  0  0  0
 16 17  2  0  0  0  0
 16 30  1  0  0  0  0
 17 31  1  0  0  0  0
 18 32  1  0  0  0  0
 19 33  1  0  0  0  0
 19 34  1  0  0  0  0
 19 35  1  0  0  0  0
 20 36  1  0  0  0  0
 20 37  1  0  0  0  0
 20 38  1  0  0  0  0
M  END
> <PUBCHEM_COMPOUND_CID>
24609426

> <PUBCHEM_COMPOUND_CANONICALIZED>
1

> <PUBCHEM_CACTVS_COMPLEXITY>
360

> <PUBCHEM_CACTVS_HBOND_ACCEPTOR>
1

> <PUBCHEM_CACTVS_HBOND_DONOR>
0

> <PUBCHEM_CACTVS_ROTATABLE_BOND>
2

> <PUBCHEM_CACTVS_SUBSKEYS>
AAADceB7IAAAAAAAAAAAAAAAAAAAAWAAAAAwYAAAAAAAAFgBQAAAHgAAAAAADAjBGAQzwIMAAACIAiRCUACCAAAhAgAIiAAIdIiIYCLAkZGUIAhohgLIyCcQgEAOAAACAAAAACAAAAQAAAAAQAAAAAAAAA==

> <PUBCHEM_IUPAC_OPENEYE_NAME>
1-[(3,5-dimethylphenyl)methyl]-3-methyl-benzimidazol-2-one

> <PUBCHEM_IUPAC_CAS_NAME>
1-[(3,5-dimethylphenyl)methyl]-3-methyl-2-benzimidazolone

> <PUBCHEM_IUPAC_NAME>
1-[(3,5-dimethylphenyl)methyl]-3-methylbenzimidazol-2-one

> <PUBCHEM_IUPAC_SYSTEMATIC_NAME>
1-[(3,5-dimethylphenyl)methyl]-3-methyl-benzimidazol-2-one

> <PUBCHEM_IUPAC_TRADITIONAL_NAME>
1-(3,5-dimethylbenzyl)-3-methyl-benzimidazol-2-one

> <PUBCHEM_IUPAC_INCHI>
InChI=1S/C17H18N2O/c1-12-8-13(2)10-14(9-12)11-19-16-7-5-4-6-15(16)18(3)17(19)20/h4-10H,11H2,1-3H3

> <PUBCHEM_IUPAC_INCHIKEY>
HZWFVPSKKVGZDS-UHFFFAOYSA-N

> <PUBCHEM_XLOGP3>
3.7

> <PUBCHEM_EXACT_MASS>
266.141913

> <PUBCHEM_MOLECULAR_FORMULA>
C17H18N2O

> <PUBCHEM_MOLECULAR_WEIGHT>
266.33762

> <PUBCHEM_OPENEYE_CAN_SMILES>
CC1=CC(=CC(=C1)CN2C3=CC=CC=C3N(C2=O)C)C

> <PUBCHEM_OPENEYE_ISO_SMILES>
CC1=CC(=CC(=C1)CN2C3=CC=CC=C3N(C2=O)C)C

> <PUBCHEM_CACTVS_TPSA>
23.6

> <PUBCHEM_MONOISOTOPIC_WEIGHT>
266.141913

> <PUBCHEM_TOTAL_CHARGE>
0

> <PUBCHEM_HEAVY_ATOM_COUNT>
20

> <PUBCHEM_ATOM_DEF_STEREO_COUNT>
0

> <PUBCHEM_ATOM_UDEF_STEREO_COUNT>
0

> <PUBCHEM_BOND_DEF_STEREO_COUNT>
0

> <PUBCHEM_BOND_UDEF_STEREO_COUNT>
0

> <PUBCHEM_ISOTOPIC_ATOM_COUNT>
0

> <PUBCHEM_COMPONENT_COUNT>
1

> <PUBCHEM_CACTVS_TAUTO_COUNT>
1

> <PUBCHEM_COORDINATE_TYPE>
1
5
255

> <PUBCHEM_BONDANNOTATIONS>
10  17  8
11  14  8
12  15  8
14  18  8
15  18  8
16  17  8
2  4  8
2  7  8
3  6  8
3  7  8
4  6  8
4  9  8
6  10  8
8  11  8
8  12  8
9  16  8

$$$$
24615524
  -OEChem-11301217362D

 31 32  0     0  0  0  0  0  0999 V2000
    2.0000   -1.7500    0.0000 Br  0  0  0  0  0  0  0  0  0  0  0  0
    2.8660   -0.2500    0.0000 O   0  0  0  0  0  0  0  0  0  0  0  0
    4.5981   -0.2500    0.0000 N   0  0  0  0  0  0  0  0  0  0  0  0
    3.7320   -1.7500    0.0000 C   0  0  0  0  0  0  0  0  0  0  0  0
    3.7320   -0.7500    0.0000 C   0  0  0  0  0  0  0  0  0  0  0  0
    2.8660   -2.2500    0.0000 C   0  0  0  0  0  0  0  0  0  0  0  0
    4.5981   -2.2500    0.0000 C   0  0  0  0  0  0  0  0  0  0  0  0
    4.5981    0.7500    0.0000 C   0  0  0  0  0  0  0  0  0  0  0  0
    2.8660   -3.2500    0.0000 C   0  0  0  0  0  0  0  0  0  0  0  0
    4.5981   -3.2500    0.0000 C   0  0  0  0  0  0  0  0  0  0  0  0
    3.7320   -3.7500    0.0000 C   0  0  0  0  0  0  0  0  0  0  0  0
    7.1962    2.2500    0.0000 C   0  0  0  0  0  0  0  0  0  0  0  0
    8.0622    1.7500    0.0000 C   0  0  0  0  0  0  0  0  0  0  0  0
    7.1962    3.2500    0.0000 C   0  0  0  0  0  0  0  0  0  0  0  0
    8.9282    2.2500    0.0000 C   0  0  0  0  0  0  0  0  0  0  0  0
    8.0622    3.7500    0.0000 C   0  0  0  0  0  0  0  0  0  0  0  0
    8.9282    3.2500    0.0000 C   0  0  0  0  0  0  0  0  0  0  0  0
    5.4641    1.2500    0.0000 C   0  0  0  0  0  0  0  0  0  0  0  0
    6.3301    1.7500    0.0000 C   0  0  0  0  0  0  0  0  0  0  0  0
    5.1350   -1.9400    0.0000 H   0  0  0  0  0  0  0  0  0  0  0  0
    5.1350   -0.5600    0.0000 H   0  0  0  0  0  0  0  0  0  0  0  0
    4.3860    1.3326    0.0000 H   0  0  0  0  0  0  0  0  0  0  0  0
    3.9875    0.6423    0.0000 H   0  0  0  0  0  0  0  0  0  0  0  0
    2.3291   -3.5600    0.0000 H   0  0  0  0  0  0  0  0  0  0  0  0
    5.1350   -3.5600    0.0000 H   0  0  0  0  0  0  0  0  0  0  0  0
    3.7320   -4.3700    0.0000 H   0  0  0  0  0  0  0  0  0  0  0  0
    8.0622    1.1300    0.0000 H   0  0  0  0  0  0  0  0  0  0  0  0
    6.6592    3.5600    0.0000 H   0  0  0  0  0  0  0  0  0  0  0  0
    9.4651    1.9400    0.0000 H   0  0  0  0  0  0  0  0  0  0  0  0
    8.0622    4.3700    0.0000 H   0  0  0  0  0  0  0  0  0  0  0  0
    9.4651    3.5600    0.0000 H   0  0  0  0  0  0  0  0  0  0  0  0
  1  6  1  0  0  0  0
  2  5  2  0  0  0  0
  3  5  1  0  0  0  0
  3  8  1  0  0  0  0
  3 21  1  0  0  0  0
  4  5  1  0  0  0  0
  4  6  1  0  0  0  0
  4  7  2  0  0  0  0
  6  9  2  0  0  0  0
  7 10  1  0  0  0  0
  7 20  1  0  0  0  0
  8 18  1  0  0  0  0
  8 22  1  0  0  0  0
  8 23  1  0  0  0  0
  9 11  1  0  0  0  0
  9 24  1  0  0  0  0
 10 11  2  0  0  0  0
 10 25  1  0  0  0  0
 11 26  1  0  0  0  0
 12 13  2  0  0  0  0
 12 14  1  0  0  0  0
 12 19  1  0  0  0  0
 13 15  1  0  0  0  0
 13 27  1  0  0  0  0
 14 16  2  0  0  0  0
 14 28  1  0  0  0  0
 15 17  2  0  0  0  0
 15 29  1  0  0  0  0
 16 17  1  0  0  0  0
 16 30  1  0  0  0  0
 17 31  1  0  0  0  0
 18 19  3  0  0  0  0
M  END
> <PUBCHEM_COMPOUND_CID>
24615524

> <PUBCHEM_COMPOUND_CANONICALIZED>
1

> <PUBCHEM_CACTVS_COMPLEXITY>
361

> <PUBCHEM_CACTVS_HBOND_ACCEPTOR>
1

> <PUBCHEM_CACTVS_HBOND_DONOR>
1

> <PUBCHEM_CACTVS_ROTATABLE_BOND>
3

> <PUBCHEM_CACTVS_SUBSKEYS>
AAADccB6IAAAEAAAAAAAAAAAAAAAAAAAAAAwYAAAAAAAAAABQAAAHgBQAAABrADBmAQwAILAAADIEiFSEAiCAAAkAAQIiIEIBOgIIDKAlRGEIQhghgCIi5cYiACOAAAAAAAAgAAAAAAAAAEAAAAAAAAAAA==

> <PUBCHEM_IUPAC_OPENEYE_NAME>
2-bromo-N-(3-phenylprop-2-ynyl)benzamide

> <PUBCHEM_IUPAC_CAS_NAME>
2-bromo-N-(3-phenylprop-2-ynyl)benzamide

> <PUBCHEM_IUPAC_NAME>
2-bromo-N-(3-phenylprop-2-ynyl)benzamide

> <PUBCHEM_IUPAC_SYSTEMATIC_NAME>
2-bromanyl-N-(3-phenylprop-2-ynyl)benzamide

> <PUBCHEM_IUPAC_TRADITIONAL_NAME>
2-bromo-N-(3-phenylprop-2-ynyl)benzamide

> <PUBCHEM_IUPAC_INCHI>
InChI=1S/C16H12BrNO/c17-15-11-5-4-10-14(15)16(19)18-12-6-9-13-7-2-1-3-8-13/h1-5,7-8,10-11H,12H2,(H,18,19)

> <PUBCHEM_IUPAC_INCHIKEY>
IFDLOEKSFPKURZ-UHFFFAOYSA-N

> <PUBCHEM_XLOGP3>
2.9

> <PUBCHEM_EXACT_MASS>
313.010226

> <PUBCHEM_MOLECULAR_FORMULA>
C16H12BrNO

> <PUBCHEM_MOLECULAR_WEIGHT>
314.17658

> <PUBCHEM_OPENEYE_CAN_SMILES>
C1=CC=C(C=C1)C#CCNC(=O)C2=CC=CC=C2Br

> <PUBCHEM_OPENEYE_ISO_SMILES>
C1=CC=C(C=C1)C#CCNC(=O)C2=CC=CC=C2Br

> <PUBCHEM_CACTVS_TPSA>
29.1

> <PUBCHEM_MONOISOTOPIC_WEIGHT>
313.010226

> <PUBCHEM_TOTAL_CHARGE>
0

> <PUBCHEM_HEAVY_ATOM_COUNT>
19

> <PUBCHEM_ATOM_DEF_STEREO_COUNT>
0

> <PUBCHEM_ATOM_UDEF_STEREO_COUNT>
0

> <PUBCHEM_BOND_DEF_STEREO_COUNT>
0

> <PUBCHEM_BOND_UDEF_STEREO_COUNT>
0

> <PUBCHEM_ISOTOPIC_ATOM_COUNT>
0

> <PUBCHEM_COMPONENT_COUNT>
1

> <PUBCHEM_CACTVS_TAUTO_COUNT>
2

> <PUBCHEM_COORDINATE_TYPE>
1
5
255

> <PUBCHEM_BONDANNOTATIONS>
10  11  8
12  13  8
12  14  8
13  15  8
14  16  8
15  17  8
16  17  8
4  6  8
4  7  8
6  9  8
7  10  8
9  11  8

$$$$
24616909
  -OEChem-11301217362D

 48 50  0     0  0  0  0  0  0999 V2000
    5.6103    1.3684    0.0000 O   0  0  0  0  0  0  0  0  0  0  0  0
    7.2566    0.8304    0.0000 N   0  0  0  0  0  0  0  0  0  0  0  0
    4.6783   -3.0926    0.0000 N   0  0  0  0  0  0  0  0  0  0  0  0
    7.5673    1.7809    0.0000 C   0  0  0  0  0  0  0  0  0  0  0  0
    8.5458    1.9871    0.0000 C   0  0  0  0  0  0  0  0  0  0  0  0
    6.8994    2.5252    0.0000 C   0  0  0  0  0  0  0  0  0  0  0  0
    8.8564    2.9376    0.0000 C   0  0  0  0  0  0  0  0  0  0  0  0
    7.2101    3.4757    0.0000 C   0  0  0  0  0  0  0  0  0  0  0  0
    8.1886    3.6819    0.0000 C   0  0  0  0  0  0  0  0  0  0  0  0
    7.9244    0.0861    0.0000 C   0  0  0  0  0  0  0  0  0  0  0  0
    6.2781    0.6241    0.0000 C   0  0  0  0  0  0  0  0  0  0  0  0
    5.9674   -0.3264    0.0000 C   0  0  0  0  0  0  0  0  0  0  0  0
    4.9889   -0.5326    0.0000 C   0  0  0  0  0  0  0  0  0  0  0  0
    8.9030    0.2923    0.0000 C   0  0  0  0  0  0  0  0  0  0  0  0
    4.6783   -1.4831    0.0000 C   0  0  0  0  0  0  0  0  0  0  0  0
    3.7320   -1.7879    0.0000 C   0  0  0  0  0  0  0  0  0  0  0  0
    5.2619   -2.2879    0.0000 C   0  0  0  0  0  0  0  0  0  0  0  0
    3.7320   -2.7879    0.0000 C   0  0  0  0  0  0  0  0  0  0  0  0
    2.8660   -1.2879    0.0000 C   0  0  0  0  0  0  0  0  0  0  0  0
    2.8660   -3.2879    0.0000 C   0  0  0  0  0  0  0  0  0  0  0  0
    2.0000   -1.7879    0.0000 C   0  0  0  0  0  0  0  0  0  0  0  0
    2.0000   -2.7879    0.0000 C   0  0  0  0  0  0  0  0  0  0  0  0
    6.9606    1.6530    0.0000 H   0  0  0  0  0  0  0  0  0  0  0  0
    6.3525    2.8172    0.0000 H   0  0  0  0  0  0  0  0  0  0  0  0
    6.5169    2.0373    0.0000 H   0  0  0  0  0  0  0  0  0  0  0  0
    8.5663    1.3674    0.0000 H   0  0  0  0  0  0  0  0  0  0  0  0
    9.1596    1.8997    0.0000 H   0  0  0  0  0  0  0  0  0  0  0  0
    7.1895    4.0954    0.0000 H   0  0  0  0  0  0  0  0  0  0  0  0
    6.5963    3.5630    0.0000 H   0  0  0  0  0  0  0  0  0  0  0  0
    9.4034    2.6456    0.0000 H   0  0  0  0  0  0  0  0  0  0  0  0
    9.2390    3.4255    0.0000 H   0  0  0  0  0  0  0  0  0  0  0  0
    8.7150    4.0096    0.0000 H   0  0  0  0  0  0  0  0  0  0  0  0
    7.9573    4.2572    0.0000 H   0  0  0  0  0  0  0  0  0  0  0  0
    7.3981   -0.2416    0.0000 H   0  0  0  0  0  0  0  0  0  0  0  0
    8.1557   -0.4892    0.0000 H   0  0  0  0  0  0  0  0  0  0  0  0
    5.9880   -0.9460    0.0000 H   0  0  0  0  0  0  0  0  0  0  0  0
    6.5812   -0.4137    0.0000 H   0  0  0  0  0  0  0  0  0  0  0  0
    4.9684    0.0871    0.0000 H   0  0  0  0  0  0  0  0  0  0  0  0
    4.3751   -0.4453    0.0000 H   0  0  0  0  0  0  0  0  0  0  0  0
    9.0308   -0.3144    0.0000 H   0  0  0  0  0  0  0  0  0  0  0  0
    9.5096    0.4201    0.0000 H   0  0  0  0  0  0  0  0  0  0  0  0
    8.7751    0.8989    0.0000 H   0  0  0  0  0  0  0  0  0  0  0  0
    5.8819   -2.2879    0.0000 H   0  0  0  0  0  0  0  0  0  0  0  0
    4.8709   -3.6819    0.0000 H   0  0  0  0  0  0  0  0  0  0  0  0
    2.8660   -0.6679    0.0000 H   0  0  0  0  0  0  0  0  0  0  0  0
    2.8660   -3.9079    0.0000 H   0  0  0  0  0  0  0  0  0  0  0  0
    1.4631   -1.4779    0.0000 H   0  0  0  0  0  0  0  0  0  0  0  0
    1.4631   -3.0979    0.0000 H   0  0  0  0  0  0  0  0  0  0  0  0
  1 11  2  0  0  0  0
  2  4  1  0  0  0  0
  2 10  1  0  0  0  0
  2 11  1  0  0  0  0
  3 17  1  0  0  0  0
  3 18  1  0  0  0  0
  3 44  1  0  0  0  0
  4  5  1  0  0  0  0
  4  6  1  0  0  0  0
  4 23  1  0  0  0  0
  5  7  1  0  0  0  0
  5 26  1  0  0  0  0
  5 27  1  0  0  0  0
  6  8  1  0  0  0  0
  6 24  1  0  0  0  0
  6 25  1  0  0  0  0
  7  9  1  0  0  0  0
  7 30  1  0  0  0  0
  7 31  1  0  0  0  0
  8  9  1  0  0  0  0
  8 28  1  0  0  0  0
  8 29  1  0  0  0  0
  9 32  1  0  0  0  0
  9 33  1  0  0  0  0
 10 14  1  0  0  0  0
 10 34  1  0  0  0  0
 10 35  1  0  0  0  0
 11 12  1  0  0  0  0
 12 13  1  0  0  0  0
 12 36  1  0  0  0  0
 12 37  1  0  0  0  0
 13 15  1  0  0  0  0
 13 38  1  0  0  0  0
 13 39  1  0  0  0  0
 14 40  1  0  0  0  0
 14 41  1  0  0  0  0
 14 42  1  0  0  0  0
 15 16  1  0  0  0  0
 15 17  2  0  0  0  0
 16 18  1  0  0  0  0
 16 19  2  0  0  0  0
 17 43  1  0  0  0  0
 18 20  2  0  0  0  0
 19 21  1  0  0  0  0
 19 45  1  0  0  0  0
 20 22  1  0  0  0  0
 20 46  1  0  0  0  0
 21 22  2  0  0  0  0
 21 47  1  0  0  0  0
 22 48  1  0  0  0  0
M  END
> <PUBCHEM_COMPOUND_CID>
24616909

> <PUBCHEM_COMPOUND_CANONICALIZED>
1

> <PUBCHEM_CACTVS_COMPLEXITY>
364

> <PUBCHEM_CACTVS_HBOND_ACCEPTOR>
1

> <PUBCHEM_CACTVS_HBOND_DONOR>
1

> <PUBCHEM_CACTVS_ROTATABLE_BOND>
5

> <PUBCHEM_CACTVS_SUBSKEYS>
AAADceB7IAAAAAAAAAAAAAAAAAAAAWAAAAAwYAAAAAAAAFgB8AAAHgAQAAAADCjBngQ+wPPJkACoAzV3VACCgCAxAiAI2aE4ZJgIIPLAkZGEIAhglgDIyAcYicCOgAAAAAACAAAAAAAAAAQAAAAAAAAAAA==

> <PUBCHEM_IUPAC_OPENEYE_NAME>
N-cyclohexyl-N-ethyl-3-(1H-indol-3-yl)propanamide

> <PUBCHEM_IUPAC_CAS_NAME>
N-cyclohexyl-N-ethyl-3-(1H-indol-3-yl)propanamide

> <PUBCHEM_IUPAC_NAME>
N-cyclohexyl-N-ethyl-3-(1H-indol-3-yl)propanamide

> <PUBCHEM_IUPAC_SYSTEMATIC_NAME>
N-cyclohexyl-N-ethyl-3-(1H-indol-3-yl)propanamide

> <PUBCHEM_IUPAC_TRADITIONAL_NAME>
N-cyclohexyl-N-ethyl-3-(1H-indol-3-yl)propionamide

> <PUBCHEM_IUPAC_INCHI>
InChI=1S/C19H26N2O/c1-2-21(16-8-4-3-5-9-16)19(22)13-12-15-14-20-18-11-7-6-10-17(15)18/h6-7,10-11,14,16,20H,2-5,8-9,12-13H2,1H3

> <PUBCHEM_IUPAC_INCHIKEY>
XSLMFYJFSLPGJN-UHFFFAOYSA-N

> <PUBCHEM_XLOGP3>
3.9

> <PUBCHEM_EXACT_MASS>
298.204513

> <PUBCHEM_MOLECULAR_FORMULA>
C19H26N2O

> <PUBCHEM_MOLECULAR_WEIGHT>
298.42254

> <PUBCHEM_OPENEYE_CAN_SMILES>
CCN(C1CCCCC1)C(=O)CCC2=CNC3=CC=CC=C32

> <PUBCHEM_OPENEYE_ISO_SMILES>
CCN(C1CCCCC1)C(=O)CCC2=CNC3=CC=CC=C32

> <PUBCHEM_CACTVS_TPSA>
36.1

> <PUBCHEM_MONOISOTOPIC_WEIGHT>
298.204513

> <PUBCHEM_TOTAL_CHARGE>
0

> <PUBCHEM_HEAVY_ATOM_COUNT>
22

> <PUBCHEM_ATOM_DEF_STEREO_COUNT>
0

> <PUBCHEM_ATOM_UDEF_STEREO_COUNT>
0

> <PUBCHEM_BOND_DEF_STEREO_COUNT>
0

> <PUBCHEM_BOND_UDEF_STEREO_COUNT>
0

> <PUBCHEM_ISOTOPIC_ATOM_COUNT>
0

> <PUBCHEM_COMPONENT_COUNT>
1

> <PUBCHEM_CACTVS_TAUTO_COUNT>
1

> <PUBCHEM_COORDINATE_TYPE>
1
5
255

> <PUBCHEM_BONDANNOTATIONS>
15  16  8
15  17  8
16  18  8
16  19  8
18  20  8
19  21  8
20  22  8
21  22  8
3  17  8
3  18  8

$$$$
