64401096
  -OEChem-11301218242D

 43 45  0     0  0  0  0  0  0999 V2000
    5.9674   -0.2373    0.0000 N   0  0  0  0  0  0  0  0  0  0  0  0
    4.6783   -3.0035    0.0000 N   0  0  0  0  0  0  0  0  0  0  0  0
    6.8994    2.6143    0.0000 C   0  0  0  0  0  0  0  0  0  0  0  0
    5.9209    2.4081    0.0000 C   0  0  0  0  0  0  0  0  0  0  0  0
    7.5673    1.8700    0.0000 C   0  0  0  0  0  0  0  0  0  0  0  0
    6.2781    0.7133    0.0000 C   0  0  0  0  0  0  0  0  0  0  0  0
    5.6103    1.4575    0.0000 C   0  0  0  0  0  0  0  0  0  0  0  0
    7.2566    0.9195    0.0000 C   0  0  0  0  0  0  0  0  0  0  0  0
    7.6437    3.2821    0.0000 C   0  0  0  0  0  0  0  0  0  0  0  0
    6.6932    3.5928    0.0000 C   0  0  0  0  0  0  0  0  0  0  0  0
    4.9889   -0.4435    0.0000 C   0  0  0  0  0  0  0  0  0  0  0  0
    4.6783   -1.3940    0.0000 C   0  0  0  0  0  0  0  0  0  0  0  0
    3.7320   -1.6987    0.0000 C   0  0  0  0  0  0  0  0  0  0  0  0
    5.2619   -2.1987    0.0000 C   0  0  0  0  0  0  0  0  0  0  0  0
    3.7320   -2.6987    0.0000 C   0  0  0  0  0  0  0  0  0  0  0  0
    2.8660   -1.1987    0.0000 C   0  0  0  0  0  0  0  0  0  0  0  0
    2.8660   -3.1987    0.0000 C   0  0  0  0  0  0  0  0  0  0  0  0
    2.0000   -1.6987    0.0000 C   0  0  0  0  0  0  0  0  0  0  0  0
    2.0000   -2.6987    0.0000 C   0  0  0  0  0  0  0  0  0  0  0  0
    8.1142    1.5780    0.0000 H   0  0  0  0  0  0  0  0  0  0  0  0
    7.9498    2.3579    0.0000 H   0  0  0  0  0  0  0  0  0  0  0  0
    5.9004    3.0277    0.0000 H   0  0  0  0  0  0  0  0  0  0  0  0
    5.3071    2.4954    0.0000 H   0  0  0  0  0  0  0  0  0  0  0  0
    5.6714    0.5854    0.0000 H   0  0  0  0  0  0  0  0  0  0  0  0
    7.2772    0.2998    0.0000 H   0  0  0  0  0  0  0  0  0  0  0  0
    7.8704    0.8321    0.0000 H   0  0  0  0  0  0  0  0  0  0  0  0
    5.0633    1.7496    0.0000 H   0  0  0  0  0  0  0  0  0  0  0  0
    5.2277    0.9696    0.0000 H   0  0  0  0  0  0  0  0  0  0  0  0
    8.0578    2.8207    0.0000 H   0  0  0  0  0  0  0  0  0  0  0  0
    8.1052    3.6962    0.0000 H   0  0  0  0  0  0  0  0  0  0  0  0
    7.2297    3.7436    0.0000 H   0  0  0  0  0  0  0  0  0  0  0  0
    7.2999    3.7206    0.0000 H   0  0  0  0  0  0  0  0  0  0  0  0
    6.5654    4.1995    0.0000 H   0  0  0  0  0  0  0  0  0  0  0  0
    6.0865    3.4649    0.0000 H   0  0  0  0  0  0  0  0  0  0  0  0
    6.3815   -0.6987    0.0000 H   0  0  0  0  0  0  0  0  0  0  0  0
    4.9684    0.1762    0.0000 H   0  0  0  0  0  0  0  0  0  0  0  0
    4.3751   -0.3561    0.0000 H   0  0  0  0  0  0  0  0  0  0  0  0
    5.8819   -2.1987    0.0000 H   0  0  0  0  0  0  0  0  0  0  0  0
    4.8709   -3.5928    0.0000 H   0  0  0  0  0  0  0  0  0  0  0  0
    2.8660   -0.5787    0.0000 H   0  0  0  0  0  0  0  0  0  0  0  0
    2.8660   -3.8187    0.0000 H   0  0  0  0  0  0  0  0  0  0  0  0
    1.4631   -1.3887    0.0000 H   0  0  0  0  0  0  0  0  0  0  0  0
    1.4631   -3.0087    0.0000 H   0  0  0  0  0  0  0  0  0  0  0  0
  1  6  1  0  0  0  0
  1 11  1  0  0  0  0
  1 35  1  0  0  0  0
  2 14  1  0  0  0  0
  2 15  1  0  0  0  0
  2 39  1  0  0  0  0
  3  4  1  0  0  0  0
  3  5  1  0  0  0  0
  3  9  1  0  0  0  0
  3 10  1  0  0  0  0
  4  7  1  0  0  0  0
  4 22  1  0  0  0  0
  4 23  1  0  0  0  0
  5  8  1  0  0  0  0
  5 20  1  0  0  0  0
  5 21  1  0  0  0  0
  6  7  1  0  0  0  0
  6  8  1  0  0  0  0
  6 24  1  0  0  0  0
  7 27  1  0  0  0  0
  7 28  1  0  0  0  0
  8 25  1  0  0  0  0
  8 26  1  0  0  0  0
  9 29  1  0  0  0  0
  9 30  1  0  0  0  0
  9 31  1  0  0  0  0
 10 32  1  0  0  0  0
 10 33  1  0  0  0  0
 10 34  1  0  0  0  0
 11 12  1  0  0  0  0
 11 36  1  0  0  0  0
 11 37  1  0  0  0  0
 12 13  1  0  0  0  0
 12 14  2  0  0  0  0
 13 15  1  0  0  0  0
 13 16  2  0  0  0  0
 14 38  1  0  0  0  0
 15 17  2  0  0  0  0
 16 18  1  0  0  0  0
 16 40  1  0  0  0  0
 17 19  1  0  0  0  0
 17 41  1  0  0  0  0
 18 19  2  0  0  0  0
 18 42  1  0  0  0  0
 19 43  1  0  0  0  0
M  END
> <PUBCHEM_COMPOUND_CID>
64401096

> <PUBCHEM_COMPOUND_CANONICALIZED>
1

> <PUBCHEM_CACTVS_COMPLEXITY>
290

> <PUBCHEM_CACTVS_HBOND_ACCEPTOR>
1

> <PUBCHEM_CACTVS_HBOND_DONOR>
2

> <PUBCHEM_CACTVS_ROTATABLE_BOND>
3

> <PUBCHEM_CACTVS_SUBSKEYS>
AAADceB7AAAAAAAAAAAAAAAAAAAAAWAAAAAwYAAAAAAAAFgB8AAAHAAQAAAADijBHgQ+wPLJkACgAzRnRACCgCAxAiAI2aA4ZJgIIOLA0ZGEIAhgkADIyAcQgMAPgAAAAAACAAAQAAAAAAQAAAAAAAAAAA==

> <PUBCHEM_IUPAC_OPENEYE_NAME>
N-(1H-indol-3-ylmethyl)-4,4-dimethyl-cyclohexanamine

> <PUBCHEM_IUPAC_CAS_NAME>
N-(1H-indol-3-ylmethyl)-4,4-dimethyl-1-cyclohexanamine

> <PUBCHEM_IUPAC_NAME>
N-(1H-indol-3-ylmethyl)-4,4-dimethylcyclohexan-1-amine

> <PUBCHEM_IUPAC_SYSTEMATIC_NAME>
N-(1H-indol-3-ylmethyl)-4,4-dimethyl-cyclohexan-1-amine

> <PUBCHEM_IUPAC_TRADITIONAL_NAME>
(4,4-dimethylcyclohexyl)-(1H-indol-3-ylmethyl)amine

> <PUBCHEM_IUPAC_INCHI>
InChI=1S/C17H24N2/c1-17(2)9-7-14(8-10-17)18-11-13-12-19-16-6-4-3-5-15(13)16/h3-6,12,14,18-19H,7-11H2,1-2H3

> <PUBCHEM_IUPAC_INCHIKEY>
KWWKMCWVHXWLOI-UHFFFAOYSA-N

> <PUBCHEM_XLOGP3>
3.8

> <PUBCHEM_EXACT_MASS>
256.193949

> <PUBCHEM_MOLECULAR_FORMULA>
C17H24N2

> <PUBCHEM_MOLECULAR_WEIGHT>
256.38586

> <PUBCHEM_OPENEYE_CAN_SMILES>
CC1(CCC(CC1)NCC2=CNC3=CC=CC=C32)C

> <PUBCHEM_OPENEYE_ISO_SMILES>
CC1(CCC(CC1)NCC2=CNC3=CC=CC=C32)C

> <PUBCHEM_CACTVS_TPSA>
27.8

> <PUBCHEM_MONOISOTOPIC_WEIGHT>
256.193949

> <PUBCHEM_TOTAL_CHARGE>
0

> <PUBCHEM_HEAVY_ATOM_COUNT>
19

> <PUBCHEM_ATOM_DEF_STEREO_COUNT>
0

> <PUBCHEM_ATOM_UDEF_STEREO_COUNT>
0

> <PUBCHEM_BOND_DEF_STEREO_COUNT>
0

> <PUBCHEM_BOND_UDEF_STEREO_COUNT>
0

> <PUBCHEM_ISOTOPIC_ATOM_COUNT>
0

> <PUBCHEM_COMPONENT_COUNT>
1

> <PUBCHEM_CACTVS_TAUTO_COUNT>
1

> <PUBCHEM_COORDINATE_TYPE>
1
5
255

> <PUBCHEM_BONDANNOTATIONS>
12  13  8
12  14  8
13  15  8
13  16  8
15  17  8
16  18  8
17  19  8
18  19  8
2  14  8
2  15  8

$$$$
64416010
  -OEChem-11301218252D

 39 40  0     0  0  0  0  0  0999 V2000
    2.0000   -3.6830    0.0000 Cl  0  0  0  0  0  0  0  0  0  0  0  0
    4.5981   -0.1830    0.0000 N   0  0  0  0  0  0  0  0  0  0  0  0
    4.5981    2.8170    0.0000 C   0  0  0  0  0  0  0  0  0  0  0  0
    3.7320    2.3170    0.0000 C   0  0  0  0  0  0  0  0  0  0  0  0
    5.4641    2.3170    0.0000 C   0  0  0  0  0  0  0  0  0  0  0  0
    4.5981    0.8170    0.0000 C   0  0  0  0  0  0  0  0  0  0  0  0
    3.7320    1.3170    0.0000 C   0  0  0  0  0  0  0  0  0  0  0  0
    5.4641    1.3170    0.0000 C   0  0  0  0  0  0  0  0  0  0  0  0
    5.0981    3.6830    0.0000 C   0  0  0  0  0  0  0  0  0  0  0  0
    4.0981    3.6830    0.0000 C   0  0  0  0  0  0  0  0  0  0  0  0
    3.7320   -0.6830    0.0000 C   0  0  0  0  0  0  0  0  0  0  0  0
    3.7320   -1.6830    0.0000 C   0  0  0  0  0  0  0  0  0  0  0  0
    2.8660   -2.1830    0.0000 C   0  0  0  0  0  0  0  0  0  0  0  0
    4.5981   -2.1830    0.0000 C   0  0  0  0  0  0  0  0  0  0  0  0
    2.8660   -3.1830    0.0000 C   0  0  0  0  0  0  0  0  0  0  0  0
    4.5981   -3.1830    0.0000 C   0  0  0  0  0  0  0  0  0  0  0  0
    3.7320   -3.6830    0.0000 C   0  0  0  0  0  0  0  0  0  0  0  0
    6.0747    2.2093    0.0000 H   0  0  0  0  0  0  0  0  0  0  0  0
    5.6762    2.8996    0.0000 H   0  0  0  0  0  0  0  0  0  0  0  0
    3.5200    2.8996    0.0000 H   0  0  0  0  0  0  0  0  0  0  0  0
    3.1215    2.2093    0.0000 H   0  0  0  0  0  0  0  0  0  0  0  0
    5.1350    0.5070    0.0000 H   0  0  0  0  0  0  0  0  0  0  0  0
    5.6762    0.7344    0.0000 H   0  0  0  0  0  0  0  0  0  0  0  0
    6.0747    1.4246    0.0000 H   0  0  0  0  0  0  0  0  0  0  0  0
    3.1215    1.4246    0.0000 H   0  0  0  0  0  0  0  0  0  0  0  0
    3.5200    0.7344    0.0000 H   0  0  0  0  0  0  0  0  0  0  0  0
    5.6350    3.3730    0.0000 H   0  0  0  0  0  0  0  0  0  0  0  0
    4.6350    3.9930    0.0000 H   0  0  0  0  0  0  0  0  0  0  0  0
    5.4081    4.2200    0.0000 H   0  0  0  0  0  0  0  0  0  0  0  0
    4.5611    3.9930    0.0000 H   0  0  0  0  0  0  0  0  0  0  0  0
    3.7881    4.2200    0.0000 H   0  0  0  0  0  0  0  0  0  0  0  0
    3.5611    3.3730    0.0000 H   0  0  0  0  0  0  0  0  0  0  0  0
    5.1350   -0.4930    0.0000 H   0  0  0  0  0  0  0  0  0  0  0  0
    3.5200   -0.1004    0.0000 H   0  0  0  0  0  0  0  0  0  0  0  0
    3.1215   -0.7907    0.0000 H   0  0  0  0  0  0  0  0  0  0  0  0
    2.3291   -1.8730    0.0000 H   0  0  0  0  0  0  0  0  0  0  0  0
    5.1350   -1.8730    0.0000 H   0  0  0  0  0  0  0  0  0  0  0  0
    5.1350   -3.4930    0.0000 H   0  0  0  0  0  0  0  0  0  0  0  0
    3.7320   -4.3030    0.0000 H   0  0  0  0  0  0  0  0  0  0  0  0
  1 15  1  0  0  0  0
  2  6  1  0  0  0  0
  2 11  1  0  0  0  0
  2 33  1  0  0  0  0
  3  4  1  0  0  0  0
  3  5  1  0  0  0  0
  3  9  1  0  0  0  0
  3 10  1  0  0  0  0
  4  7  1  0  0  0  0
  4 20  1  0  0  0  0
  4 21  1  0  0  0  0
  5  8  1  0  0  0  0
  5 18  1  0  0  0  0
  5 19  1  0  0  0  0
  6  7  1  0  0  0  0
  6  8  1  0  0  0  0
  6 22  1  0  0  0  0
  7 25  1  0  0  0  0
  7 26  1  0  0  0  0
  8 23  1  0  0  0  0
  8 24  1  0  0  0  0
  9 27  1  0  0  0  0
  9 29  1  0  0  0  0
  9 30  1  0  0  0  0
 10 28  1  0  0  0  0
 10 31  1  0  0  0  0
 10 32  1  0  0  0  0
 11 12  1  0  0  0  0
 11 34  1  0  0  0  0
 11 35  1  0  0  0  0
 12 13  2  0  0  0  0
 12 14  1  0  0  0  0
 13 15  1  0  0  0  0
 13 36  1  0  0  0  0
 14 16  2  0  0  0  0
 14 37  1  0  0  0  0
 15 17  2  0  0  0  0
 16 17  1  0  0  0  0
 16 38  1  0  0  0  0
 17 39  1  0  0  0  0
M  END
> <PUBCHEM_COMPOUND_CID>
64416010

> <PUBCHEM_COMPOUND_CANONICALIZED>
1

> <PUBCHEM_CACTVS_COMPLEXITY>
229

> <PUBCHEM_CACTVS_HBOND_ACCEPTOR>
1

> <PUBCHEM_CACTVS_HBOND_DONOR>
1

> <PUBCHEM_CACTVS_ROTATABLE_BOND>
3

> <PUBCHEM_CACTVS_SUBSKEYS>
AAADceByAAAEAAAAAAAAAAAAAAAAAAAAAAAwYAAAAAAAAAABAAAAHAIQAAAADirBGCQyAILAAACAAiBCAACCAAAgBQAIiIAIBogIICKBkxGEIAhgkACIiAcQgEAPAAAAIAAAAAAQAABAAAAAAAAAAAAAAA==

> <PUBCHEM_IUPAC_OPENEYE_NAME>
N-[(3-chlorophenyl)methyl]-4,4-dimethyl-cyclohexanamine

> <PUBCHEM_IUPAC_CAS_NAME>
N-[(3-chlorophenyl)methyl]-4,4-dimethyl-1-cyclohexanamine

> <PUBCHEM_IUPAC_NAME>
N-[(3-chlorophenyl)methyl]-4,4-dimethylcyclohexan-1-amine

> <PUBCHEM_IUPAC_SYSTEMATIC_NAME>
N-[(3-chlorophenyl)methyl]-4,4-dimethyl-cyclohexan-1-amine

> <PUBCHEM_IUPAC_TRADITIONAL_NAME>
(3-chlorobenzyl)-(4,4-dimethylcyclohexyl)amine

> <PUBCHEM_IUPAC_INCHI>
InChI=1S/C15H22ClN/c1-15(2)8-6-14(7-9-15)17-11-12-4-3-5-13(16)10-12/h3-5,10,14,17H,6-9,11H2,1-2H3

> <PUBCHEM_IUPAC_INCHIKEY>
UZRRYQMTILFOET-UHFFFAOYSA-N

> <PUBCHEM_XLOGP3>
4.7

> <PUBCHEM_EXACT_MASS>
251.144077

> <PUBCHEM_MOLECULAR_FORMULA>
C15H22ClN

> <PUBCHEM_MOLECULAR_WEIGHT>
251.79488

> <PUBCHEM_OPENEYE_CAN_SMILES>
CC1(CCC(CC1)NCC2=CC(=CC=C2)Cl)C

> <PUBCHEM_OPENEYE_ISO_SMILES>
CC1(CCC(CC1)NCC2=CC(=CC=C2)Cl)C

> <PUBCHEM_CACTVS_TPSA>
12

> <PUBCHEM_MONOISOTOPIC_WEIGHT>
251.144077

> <PUBCHEM_TOTAL_CHARGE>
0

> <PUBCHEM_HEAVY_ATOM_COUNT>
17

> <PUBCHEM_ATOM_DEF_STEREO_COUNT>
0

> <PUBCHEM_ATOM_UDEF_STEREO_COUNT>
0

> <PUBCHEM_BOND_DEF_STEREO_COUNT>
0

> <PUBCHEM_BOND_UDEF_STEREO_COUNT>
0

> <PUBCHEM_ISOTOPIC_ATOM_COUNT>
0

> <PUBCHEM_COMPONENT_COUNT>
1

> <PUBCHEM_CACTVS_TAUTO_COUNT>
1

> <PUBCHEM_COORDINATE_TYPE>
1
5
255

> <PUBCHEM_BONDANNOTATIONS>
12  13  8
12  14  8
13  15  8
14  16  8
15  17  8
16  17  8

$$$$
64416078
  -OEChem-11301218252D

 46 48  0     0  0  0  0  0  0999 V2000
    6.2781    1.4715    0.0000 N   0  0  0  0  0  0  0  0  0  0  0  0
    4.6783   -2.2452    0.0000 N   0  0  0  0  0  0  0  0  0  0  0  0
    9.2136    2.0902    0.0000 C   0  0  0  0  0  0  0  0  0  0  0  0
    8.5458    2.8345    0.0000 C   0  0  0  0  0  0  0  0  0  0  0  0
    8.9030    1.1397    0.0000 C   0  0  0  0  0  0  0  0  0  0  0  0
    7.2566    1.6778    0.0000 C   0  0  0  0  0  0  0  0  0  0  0  0
    7.5673    2.6283    0.0000 C   0  0  0  0  0  0  0  0  0  0  0  0
    7.9244    0.9335    0.0000 C   0  0  0  0  0  0  0  0  0  0  0  0
    9.9579    2.7580    0.0000 C   0  0  0  0  0  0  0  0  0  0  0  0
   10.1641    1.7795    0.0000 C   0  0  0  0  0  0  0  0  0  0  0  0
    5.9674    0.5210    0.0000 C   0  0  0  0  0  0  0  0  0  0  0  0
    4.9889    0.3148    0.0000 C   0  0  0  0  0  0  0  0  0  0  0  0
    4.6783   -0.6357    0.0000 C   0  0  0  0  0  0  0  0  0  0  0  0
    3.7320   -0.9404    0.0000 C   0  0  0  0  0  0  0  0  0  0  0  0
    5.2619   -1.4404    0.0000 C   0  0  0  0  0  0  0  0  0  0  0  0
    3.7320   -1.9404    0.0000 C   0  0  0  0  0  0  0  0  0  0  0  0
    2.8660   -0.4404    0.0000 C   0  0  0  0  0  0  0  0  0  0  0  0
    2.8660   -2.4404    0.0000 C   0  0  0  0  0  0  0  0  0  0  0  0
    2.0000   -0.9404    0.0000 C   0  0  0  0  0  0  0  0  0  0  0  0
    2.0000   -1.9404    0.0000 C   0  0  0  0  0  0  0  0  0  0  0  0
    9.0721    3.1621    0.0000 H   0  0  0  0  0  0  0  0  0  0  0  0
    8.3145    3.4098    0.0000 H   0  0  0  0  0  0  0  0  0  0  0  0
    8.9235    0.5200    0.0000 H   0  0  0  0  0  0  0  0  0  0  0  0
    9.5168    1.0523    0.0000 H   0  0  0  0  0  0  0  0  0  0  0  0
    7.0640    1.0884    0.0000 H   0  0  0  0  0  0  0  0  0  0  0  0
    7.5467    3.2479    0.0000 H   0  0  0  0  0  0  0  0  0  0  0  0
    6.9534    2.7156    0.0000 H   0  0  0  0  0  0  0  0  0  0  0  0
    7.3981    0.6058    0.0000 H   0  0  0  0  0  0  0  0  0  0  0  0
    8.1557    0.3582    0.0000 H   0  0  0  0  0  0  0  0  0  0  0  0
   10.3720    2.2966    0.0000 H   0  0  0  0  0  0  0  0  0  0  0  0
   10.4194    3.1721    0.0000 H   0  0  0  0  0  0  0  0  0  0  0  0
    9.5439    3.2195    0.0000 H   0  0  0  0  0  0  0  0  0  0  0  0
    9.9715    1.1902    0.0000 H   0  0  0  0  0  0  0  0  0  0  0  0
   10.7535    1.5869    0.0000 H   0  0  0  0  0  0  0  0  0  0  0  0
   10.3567    2.3689    0.0000 H   0  0  0  0  0  0  0  0  0  0  0  0
    5.8640    1.9330    0.0000 H   0  0  0  0  0  0  0  0  0  0  0  0
    5.9880   -0.0986    0.0000 H   0  0  0  0  0  0  0  0  0  0  0  0
    6.5812    0.4337    0.0000 H   0  0  0  0  0  0  0  0  0  0  0  0
    4.9684    0.9345    0.0000 H   0  0  0  0  0  0  0  0  0  0  0  0
    4.3751    0.4022    0.0000 H   0  0  0  0  0  0  0  0  0  0  0  0
    5.8819   -1.4404    0.0000 H   0  0  0  0  0  0  0  0  0  0  0  0
    4.8709   -2.8345    0.0000 H   0  0  0  0  0  0  0  0  0  0  0  0
    2.8660    0.1796    0.0000 H   0  0  0  0  0  0  0  0  0  0  0  0
    2.8660   -3.0604    0.0000 H   0  0  0  0  0  0  0  0  0  0  0  0
    1.4631   -0.6304    0.0000 H   0  0  0  0  0  0  0  0  0  0  0  0
    1.4631   -2.2504    0.0000 H   0  0  0  0  0  0  0  0  0  0  0  0
  1  6  1  0  0  0  0
  1 11  1  0  0  0  0
  1 36  1  0  0  0  0
  2 15  1  0  0  0  0
  2 16  1  0  0  0  0
  2 42  1  0  0  0  0
  3  4  1  0  0  0  0
  3  5  1  0  0  0  0
  3  9  1  0  0  0  0
  3 10  1  0  0  0  0
  4  7  1  0  0  0  0
  4 21  1  0  0  0  0
  4 22  1  0  0  0  0
  5  8  1  0  0  0  0
  5 23  1  0  0  0  0
  5 24  1  0  0  0  0
  6  7  1  0  0  0  0
  6  8  1  0  0  0  0
  6 25  1  0  0  0  0
  7 26  1  0  0  0  0
  7 27  1  0  0  0  0
  8 28  1  0  0  0  0
  8 29  1  0  0  0  0
  9 30  1  0  0  0  0
  9 31  1  0  0  0  0
  9 32  1  0  0  0  0
 10 33  1  0  0  0  0
 10 34  1  0  0  0  0
 10 35  1  0  0  0  0
 11 12  1  0  0  0  0
 11 37  1  0  0  0  0
 11 38  1  0  0  0  0
 12 13  1  0  0  0  0
 12 39  1  0  0  0  0
 12 40  1  0  0  0  0
 13 14  1  0  0  0  0
 13 15  2  0  0  0  0
 14 16  1  0  0  0  0
 14 17  2  0  0  0  0
 15 41  1  0  0  0  0
 16 18  2  0  0  0  0
 17 19  1  0  0  0  0
 17 43  1  0  0  0  0
 18 20  1  0  0  0  0
 18 44  1  0  0  0  0
 19 20  2  0  0  0  0
 19 45  1  0  0  0  0
 20 46  1  0  0  0  0
M  END
> <PUBCHEM_COMPOUND_CID>
64416078

> <PUBCHEM_COMPOUND_CANONICALIZED>
1

> <PUBCHEM_CACTVS_COMPLEXITY>
303

> <PUBCHEM_CACTVS_HBOND_ACCEPTOR>
1

> <PUBCHEM_CACTVS_HBOND_DONOR>
2

> <PUBCHEM_CACTVS_ROTATABLE_BOND>
4

> <PUBCHEM_CACTVS_SUBSKEYS>
AAADceB7AAAAAAAAAAAAAAAAAAAAAWAAAAAwYAAAAAAAAFgB8AAAHAAQAAAADijBHgQ+wPLJkACgAzRnRACCgCAxAiAI2aA4ZJgIIOLAkZGEIAhgkADIyAcQgMAPgAAAAAACAAAQAAAAAAQAAAAAAAAAAA==

> <PUBCHEM_IUPAC_OPENEYE_NAME>
N-[2-(1H-indol-3-yl)ethyl]-4,4-dimethyl-cyclohexanamine

> <PUBCHEM_IUPAC_CAS_NAME>
N-[2-(1H-indol-3-yl)ethyl]-4,4-dimethyl-1-cyclohexanamine

> <PUBCHEM_IUPAC_NAME>
N-[2-(1H-indol-3-yl)ethyl]-4,4-dimethylcyclohexan-1-amine

> <PUBCHEM_IUPAC_SYSTEMATIC_NAME>
N-[2-(1H-indol-3-yl)ethyl]-4,4-dimethyl-cyclohexan-1-amine

> <PUBCHEM_IUPAC_TRADITIONAL_NAME>
(4,4-dimethylcyclohexyl)-[2-(1H-indol-3-yl)ethyl]amine

> <PUBCHEM_IUPAC_INCHI>
InChI=1S/C18H26N2/c1-18(2)10-7-15(8-11-18)19-12-9-14-13-20-17-6-4-3-5-16(14)17/h3-6,13,15,19-20H,7-12H2,1-2H3

> <PUBCHEM_IUPAC_INCHIKEY>
PYMPFXCLAZJKHA-UHFFFAOYSA-N

> <PUBCHEM_XLOGP3>
4.5

> <PUBCHEM_EXACT_MASS>
270.209599

> <PUBCHEM_MOLECULAR_FORMULA>
C18H26N2

> <PUBCHEM_MOLECULAR_WEIGHT>
270.41244

> <PUBCHEM_OPENEYE_CAN_SMILES>
CC1(CCC(CC1)NCCC2=CNC3=CC=CC=C32)C

> <PUBCHEM_OPENEYE_ISO_SMILES>
CC1(CCC(CC1)NCCC2=CNC3=CC=CC=C32)C

> <PUBCHEM_CACTVS_TPSA>
27.8

> <PUBCHEM_MONOISOTOPIC_WEIGHT>
270.209599

> <PUBCHEM_TOTAL_CHARGE>
0

> <PUBCHEM_HEAVY_ATOM_COUNT>
20

> <PUBCHEM_ATOM_DEF_STEREO_COUNT>
0

> <PUBCHEM_ATOM_UDEF_STEREO_COUNT>
0

> <PUBCHEM_BOND_DEF_STEREO_COUNT>
0

> <PUBCHEM_BOND_UDEF_STEREO_COUNT>
0

> <PUBCHEM_ISOTOPIC_ATOM_COUNT>
0

> <PUBCHEM_COMPONENT_COUNT>
1

> <PUBCHEM_CACTVS_TAUTO_COUNT>
1

> <PUBCHEM_COORDINATE_TYPE>
1
5
255

> <PUBCHEM_BONDANNOTATIONS>
13  14  8
13  15  8
14  16  8
14  17  8
16  18  8
17  19  8
18  20  8
19  20  8
2  15  8
2  16  8

$$$$
64416393
  -OEChem-11301218252D

 46 48  0     1  0  0  0  0  0999 V2000
    5.5981   -0.8730    0.0000 N   0  0  0  0  0  0  0  0  0  0  0  0
    3.0000    0.6270    0.0000 C   0  0  0  0  0  0  0  0  0  0  0  0
    4.7320   -0.3730    0.0000 C   0  0  0  0  0  0  0  0  0  0  0  0
    3.8660    1.1270    0.0000 C   0  0  0  0  0  0  0  0  0  0  0  0
    3.0000   -0.3730    0.0000 C   0  0  0  0  0  0  0  0  0  0  0  0
    3.8660   -0.8730    0.0000 C   0  0  0  0  0  0  0  0  0  0  0  0
    4.7320    0.6270    0.0000 C   0  0  0  0  0  0  0  0  0  0  0  0
    6.4641   -0.3730    0.0000 C   0  0  3  0  0  0  0  0  0  0  0  0
    2.0000    0.6270    0.0000 C   0  0  0  0  0  0  0  0  0  0  0  0
    2.5000    1.4930    0.0000 C   0  0  0  0  0  0  0  0  0  0  0  0
    6.4641    0.6270    0.0000 C   0  0  0  0  0  0  0  0  0  0  0  0
    7.3301   -0.8730    0.0000 C   0  0  0  0  0  0  0  0  0  0  0  0
    7.3301    1.1270    0.0000 C   0  0  0  0  0  0  0  0  0  0  0  0
    8.1962   -0.3730    0.0000 C   0  0  0  0  0  0  0  0  0  0  0  0
    8.1962    0.6270    0.0000 C   0  0  0  0  0  0  0  0  0  0  0  0
    9.0901   -0.9077    0.0000 C   0  0  0  0  0  0  0  0  0  0  0  0
    9.0901    1.1616    0.0000 C   0  0  0  0  0  0  0  0  0  0  0  0
    9.9962   -0.3938    0.0000 C   0  0  0  0  0  0  0  0  0  0  0  0
    9.9962    0.6478    0.0000 C   0  0  0  0  0  0  0  0  0  0  0  0
    4.7320   -0.9930    0.0000 H   0  0  0  0  0  0  0  0  0  0  0  0
    4.2646    1.6019    0.0000 H   0  0  0  0  0  0  0  0  0  0  0  0
    3.4675    1.6019    0.0000 H   0  0  0  0  0  0  0  0  0  0  0  0
    2.3894   -0.2654    0.0000 H   0  0  0  0  0  0  0  0  0  0  0  0
    2.7880   -0.9556    0.0000 H   0  0  0  0  0  0  0  0  0  0  0  0
    5.3426    0.5193    0.0000 H   0  0  0  0  0  0  0  0  0  0  0  0
    4.9441    1.2096    0.0000 H   0  0  0  0  0  0  0  0  0  0  0  0
    3.4675   -1.3480    0.0000 H   0  0  0  0  0  0  0  0  0  0  0  0
    4.2646   -1.3480    0.0000 H   0  0  0  0  0  0  0  0  0  0  0  0
    6.4641   -0.9930    0.0000 H   0  0  0  0  0  0  0  0  0  0  0  0
    5.5981   -1.4930    0.0000 H   0  0  0  0  0  0  0  0  0  0  0  0
    2.0000    1.2470    0.0000 H   0  0  0  0  0  0  0  0  0  0  0  0
    3.0369    1.8030    0.0000 H   0  0  0  0  0  0  0  0  0  0  0  0
    2.1900    2.0300    0.0000 H   0  0  0  0  0  0  0  0  0  0  0  0
    1.3800    0.6270    0.0000 H   0  0  0  0  0  0  0  0  0  0  0  0
    1.9631    1.1830    0.0000 H   0  0  0  0  0  0  0  0  0  0  0  0
    2.0000    0.0070    0.0000 H   0  0  0  0  0  0  0  0  0  0  0  0
    6.2520    1.2096    0.0000 H   0  0  0  0  0  0  0  0  0  0  0  0
    5.8535    0.5193    0.0000 H   0  0  0  0  0  0  0  0  0  0  0  0
    6.9316   -1.3480    0.0000 H   0  0  0  0  0  0  0  0  0  0  0  0
    7.7287   -1.3480    0.0000 H   0  0  0  0  0  0  0  0  0  0  0  0
    7.7287    1.6019    0.0000 H   0  0  0  0  0  0  0  0  0  0  0  0
    6.9316    1.6019    0.0000 H   0  0  0  0  0  0  0  0  0  0  0  0
    9.0829   -1.5276    0.0000 H   0  0  0  0  0  0  0  0  0  0  0  0
    9.0829    1.7816    0.0000 H   0  0  0  0  0  0  0  0  0  0  0  0
   10.5319   -0.7059    0.0000 H   0  0  0  0  0  0  0  0  0  0  0  0
   10.5319    0.9599    0.0000 H   0  0  0  0  0  0  0  0  0  0  0  0
  1  3  1  0  0  0  0
  1  8  1  0  0  0  0
  1 30  1  0  0  0  0
  2  4  1  0  0  0  0
  2  5  1  0  0  0  0
  2  9  1  0  0  0  0
  2 10  1  0  0  0  0
  3  6  1  0  0  0  0
  3  7  1  0  0  0  0
  3 20  1  0  0  0  0
  4  7  1  0  0  0  0
  4 21  1  0  0  0  0
  4 22  1  0  0  0  0
  5  6  1  0  0  0  0
  5 23  1  0  0  0  0
  5 24  1  0  0  0  0
  6 27  1  0  0  0  0
  6 28  1  0  0  0  0
  7 25  1  0  0  0  0
  7 26  1  0  0  0  0
  8 11  1  0  0  0  0
  8 12  1  0  0  0  0
  8 29  1  0  0  0  0
  9 31  1  0  0  0  0
  9 34  1  0  0  0  0
  9 36  1  0  0  0  0
 10 32  1  0  0  0  0
 10 33  1  0  0  0  0
 10 35  1  0  0  0  0
 11 13  1  0  0  0  0
 11 37  1  0  0  0  0
 11 38  1  0  0  0  0
 12 14  1  0  0  0  0
 12 39  1  0  0  0  0
 12 40  1  0  0  0  0
 13 15  1  0  0  0  0
 13 41  1  0  0  0  0
 13 42  1  0  0  0  0
 14 15  1  0  0  0  0
 14 16  2  0  0  0  0
 15 17  2  0  0  0  0
 16 18  1  0  0  0  0
 16 43  1  0  0  0  0
 17 19  1  0  0  0  0
 17 44  1  0  0  0  0
 18 19  2  0  0  0  0
 18 45  1  0  0  0  0
 19 46  1  0  0  0  0
M  END
> <PUBCHEM_COMPOUND_CID>
64416393

> <PUBCHEM_COMPOUND_CANONICALIZED>
1

> <PUBCHEM_CACTVS_COMPLEXITY>
286

> <PUBCHEM_CACTVS_HBOND_ACCEPTOR>
1

> <PUBCHEM_CACTVS_HBOND_DONOR>
1

> <PUBCHEM_CACTVS_ROTATABLE_BOND>
2

> <PUBCHEM_CACTVS_SUBSKEYS>
AAADceB6AAAAAAAAAAAAAAAAAAAAAAAAAAAwYMAAAAAAAADBAAAAHAAQAAAADijBGAQyAILAAACAAiBCAAACAAAgAAAIiIAIAIgIICKAkRGEIAAgkACIiAcQgMAPgAAAAAAQAAAQAACAACAAAAAAAAAAAA==

> <PUBCHEM_IUPAC_OPENEYE_NAME>
N-(4,4-dimethylcyclohexyl)tetralin-2-amine

> <PUBCHEM_IUPAC_CAS_NAME>
N-(4,4-dimethylcyclohexyl)-1,2,3,4-tetrahydronaphthalen-2-amine

> <PUBCHEM_IUPAC_NAME>
N-(4,4-dimethylcyclohexyl)-1,2,3,4-tetrahydronaphthalen-2-amine

> <PUBCHEM_IUPAC_SYSTEMATIC_NAME>
N-(4,4-dimethylcyclohexyl)-1,2,3,4-tetrahydronaphthalen-2-amine

> <PUBCHEM_IUPAC_TRADITIONAL_NAME>
(4,4-dimethylcyclohexyl)-tetralin-2-yl-amine

> <PUBCHEM_IUPAC_INCHI>
InChI=1S/C18H27N/c1-18(2)11-9-16(10-12-18)19-17-8-7-14-5-3-4-6-15(14)13-17/h3-6,16-17,19H,7-13H2,1-2H3

> <PUBCHEM_IUPAC_INCHIKEY>
TWRKYHXLHQMQQO-UHFFFAOYSA-N

> <PUBCHEM_XLOGP3>
4.8

> <PUBCHEM_EXACT_MASS>
257.21435

> <PUBCHEM_MOLECULAR_FORMULA>
C18H27N

> <PUBCHEM_MOLECULAR_WEIGHT>
257.41368

> <PUBCHEM_OPENEYE_CAN_SMILES>
CC1(CCC(CC1)NC2CCC3=CC=CC=C3C2)C

> <PUBCHEM_OPENEYE_ISO_SMILES>
CC1(CCC(CC1)NC2CCC3=CC=CC=C3C2)C

> <PUBCHEM_CACTVS_TPSA>
12

> <PUBCHEM_MONOISOTOPIC_WEIGHT>
257.21435

> <PUBCHEM_TOTAL_CHARGE>
0

> <PUBCHEM_HEAVY_ATOM_COUNT>
19

> <PUBCHEM_ATOM_DEF_STEREO_COUNT>
0

> <PUBCHEM_ATOM_UDEF_STEREO_COUNT>
1

> <PUBCHEM_BOND_DEF_STEREO_COUNT>
0

> <PUBCHEM_BOND_UDEF_STEREO_COUNT>
0

> <PUBCHEM_ISOTOPIC_ATOM_COUNT>
0

> <PUBCHEM_COMPONENT_COUNT>
1

> <PUBCHEM_CACTVS_TAUTO_COUNT>
1

> <PUBCHEM_COORDINATE_TYPE>
1
5
255

> <PUBCHEM_BONDANNOTATIONS>
8  1  3
14  15  8
14  16  8
15  17  8
16  18  8
17  19  8
18  19  8

$$$$
64416664
  -OEChem-11301218252D

 39 40  0     0  0  0  0  0  0999 V2000
    2.8660    0.9330    0.0000 N   0  0  0  0  0  0  0  0  0  0  0  0
    2.8660   -2.0670    0.0000 C   0  0  0  0  0  0  0  0  0  0  0  0
    3.7320   -1.5670    0.0000 C   0  0  0  0  0  0  0  0  0  0  0  0
    2.0000   -1.5670    0.0000 C   0  0  0  0  0  0  0  0  0  0  0  0
    2.8660   -0.0670    0.0000 C   0  0  0  0  0  0  0  0  0  0  0  0
    3.7320   -0.5670    0.0000 C   0  0  0  0  0  0  0  0  0  0  0  0
    2.0000   -0.5670    0.0000 C   0  0  0  0  0  0  0  0  0  0  0  0
    2.3660   -2.9330    0.0000 C   0  0  0  0  0  0  0  0  0  0  0  0
    3.3660   -2.9330    0.0000 C   0  0  0  0  0  0  0  0  0  0  0  0
    3.7320    1.4330    0.0000 C   0  0  0  0  0  0  0  0  0  0  0  0
    4.5981    0.9330    0.0000 C   0  0  0  0  0  0  0  0  0  0  0  0
    3.7320    2.4330    0.0000 C   0  0  0  0  0  0  0  0  0  0  0  0
    5.4641    1.4330    0.0000 C   0  0  0  0  0  0  0  0  0  0  0  0
    4.5981   -0.0670    0.0000 C   0  0  0  0  0  0  0  0  0  0  0  0
    4.5981    2.9330    0.0000 C   0  0  0  0  0  0  0  0  0  0  0  0
    5.4641    2.4330    0.0000 C   0  0  0  0  0  0  0  0  0  0  0  0
    1.3894   -1.4593    0.0000 H   0  0  0  0  0  0  0  0  0  0  0  0
    1.7880   -2.1496    0.0000 H   0  0  0  0  0  0  0  0  0  0  0  0
    3.9441   -2.1496    0.0000 H   0  0  0  0  0  0  0  0  0  0  0  0
    4.3426   -1.4593    0.0000 H   0  0  0  0  0  0  0  0  0  0  0  0
    3.4030    0.2430    0.0000 H   0  0  0  0  0  0  0  0  0  0  0  0
    1.7880    0.0156    0.0000 H   0  0  0  0  0  0  0  0  0  0  0  0
    1.3894   -0.6746    0.0000 H   0  0  0  0  0  0  0  0  0  0  0  0
    4.3426   -0.6746    0.0000 H   0  0  0  0  0  0  0  0  0  0  0  0
    3.9441    0.0156    0.0000 H   0  0  0  0  0  0  0  0  0  0  0  0
    2.8291   -3.2430    0.0000 H   0  0  0  0  0  0  0  0  0  0  0  0
    1.8291   -2.6230    0.0000 H   0  0  0  0  0  0  0  0  0  0  0  0
    2.0560   -3.4700    0.0000 H   0  0  0  0  0  0  0  0  0  0  0  0
    2.9030   -3.2430    0.0000 H   0  0  0  0  0  0  0  0  0  0  0  0
    3.6760   -3.4700    0.0000 H   0  0  0  0  0  0  0  0  0  0  0  0
    3.9030   -2.6230    0.0000 H   0  0  0  0  0  0  0  0  0  0  0  0
    2.3291    1.2430    0.0000 H   0  0  0  0  0  0  0  0  0  0  0  0
    3.1951    2.7430    0.0000 H   0  0  0  0  0  0  0  0  0  0  0  0
    6.0010    1.1230    0.0000 H   0  0  0  0  0  0  0  0  0  0  0  0
    3.9781   -0.0670    0.0000 H   0  0  0  0  0  0  0  0  0  0  0  0
    4.5981   -0.6870    0.0000 H   0  0  0  0  0  0  0  0  0  0  0  0
    5.2181   -0.0670    0.0000 H   0  0  0  0  0  0  0  0  0  0  0  0
    4.5981    3.5530    0.0000 H   0  0  0  0  0  0  0  0  0  0  0  0
    6.0010    2.7430    0.0000 H   0  0  0  0  0  0  0  0  0  0  0  0
  1  5  1  0  0  0  0
  1 10  1  0  0  0  0
  1 32  1  0  0  0  0
  2  3  1  0  0  0  0
  2  4  1  0  0  0  0
  2  8  1  0  0  0  0
  2  9  1  0  0  0  0
  3  6  1  0  0  0  0
  3 19  1  0  0  0  0
  3 20  1  0  0  0  0
  4  7  1  0  0  0  0
  4 17  1  0  0  0  0
  4 18  1  0  0  0  0
  5  6  1  0  0  0  0
  5  7  1  0  0  0  0
  5 21  1  0  0  0  0
  6 24  1  0  0  0  0
  6 25  1  0  0  0  0
  7 22  1  0  0  0  0
  7 23  1  0  0  0  0
  8 27  1  0  0  0  0
  8 28  1  0  0  0  0
  8 29  1  0  0  0  0
  9 26  1  0  0  0  0
  9 30  1  0  0  0  0
  9 31  1  0  0  0  0
 10 11  1  0  0  0  0
 10 12  2  0  0  0  0
 11 13  2  0  0  0  0
 11 14  1  0  0  0  0
 12 15  1  0  0  0  0
 12 33  1  0  0  0  0
 13 16  1  0  0  0  0
 13 34  1  0  0  0  0
 14 35  1  0  0  0  0
 14 36  1  0  0  0  0
 14 37  1  0  0  0  0
 15 16  2  0  0  0  0
 15 38  1  0  0  0  0
 16 39  1  0  0  0  0
M  END
> <PUBCHEM_COMPOUND_CID>
64416664

> <PUBCHEM_COMPOUND_CANONICALIZED>
1

> <PUBCHEM_CACTVS_COMPLEXITY>
212

> <PUBCHEM_CACTVS_HBOND_ACCEPTOR>
1

> <PUBCHEM_CACTVS_HBOND_DONOR>
1

> <PUBCHEM_CACTVS_ROTATABLE_BOND>
2

> <PUBCHEM_CACTVS_SUBSKEYS>
AAADceByAAAAAAAAAAAAAAAAAAAAAAAAAAAwYAAAAAAAAAABAAAAHAAQAAAADijBGAQywILAAACAAiRCQACCAAAhAgAIiIAIZIgIICLAkZGEIAhgkADIyAcQgEAPAAAAAAACAAAQAAAAAAQAAAAAAAAAAA==

> <PUBCHEM_IUPAC_OPENEYE_NAME>
N-(4,4-dimethylcyclohexyl)-2-methyl-aniline

> <PUBCHEM_IUPAC_CAS_NAME>
N-(4,4-dimethylcyclohexyl)-2-methylaniline

> <PUBCHEM_IUPAC_NAME>
N-(4,4-dimethylcyclohexyl)-2-methylaniline

> <PUBCHEM_IUPAC_SYSTEMATIC_NAME>
N-(4,4-dimethylcyclohexyl)-2-methyl-aniline

> <PUBCHEM_IUPAC_TRADITIONAL_NAME>
(4,4-dimethylcyclohexyl)-(o-tolyl)amine

> <PUBCHEM_IUPAC_INCHI>
InChI=1S/C15H23N/c1-12-6-4-5-7-14(12)16-13-8-10-15(2,3)11-9-13/h4-7,13,16H,8-11H2,1-3H3

> <PUBCHEM_IUPAC_INCHIKEY>
ZNSSICDLSJZLIJ-UHFFFAOYSA-N

> <PUBCHEM_XLOGP3>
4.6

> <PUBCHEM_EXACT_MASS>
217.18305

> <PUBCHEM_MOLECULAR_FORMULA>
C15H23N

> <PUBCHEM_MOLECULAR_WEIGHT>
217.34982

> <PUBCHEM_OPENEYE_CAN_SMILES>
CC1=CC=CC=C1NC2CCC(CC2)(C)C

> <PUBCHEM_OPENEYE_ISO_SMILES>
CC1=CC=CC=C1NC2CCC(CC2)(C)C

> <PUBCHEM_CACTVS_TPSA>
12

> <PUBCHEM_MONOISOTOPIC_WEIGHT>
217.18305

> <PUBCHEM_TOTAL_CHARGE>
0

> <PUBCHEM_HEAVY_ATOM_COUNT>
16

> <PUBCHEM_ATOM_DEF_STEREO_COUNT>
0

> <PUBCHEM_ATOM_UDEF_STEREO_COUNT>
0

> <PUBCHEM_BOND_DEF_STEREO_COUNT>
0

> <PUBCHEM_BOND_UDEF_STEREO_COUNT>
0

> <PUBCHEM_ISOTOPIC_ATOM_COUNT>
0

> <PUBCHEM_COMPONENT_COUNT>
1

> <PUBCHEM_CACTVS_TAUTO_COUNT>
1

> <PUBCHEM_COORDINATE_TYPE>
1
5
255

> <PUBCHEM_BONDANNOTATIONS>
10  11  8
10  12  8
11  13  8
12  15  8
13  16  8
15  16  8

$$$$
64416668
  -OEChem-11301218252D

 40 42  0     0  0  0  0  0  0999 V2000
    5.5981   -0.8870    0.0000 N   0  0  0  0  0  0  0  0  0  0  0  0
    9.1424    0.9177    0.0000 N   0  0  0  0  0  0  0  0  0  0  0  0
    3.0000    0.6130    0.0000 C   0  0  0  0  0  0  0  0  0  0  0  0
    3.0000   -0.3870    0.0000 C   0  0  0  0  0  0  0  0  0  0  0  0
    3.8660    1.1130    0.0000 C   0  0  0  0  0  0  0  0  0  0  0  0
    4.7320   -0.3870    0.0000 C   0  0  0  0  0  0  0  0  0  0  0  0
    3.8660   -0.8870    0.0000 C   0  0  0  0  0  0  0  0  0  0  0  0
    4.7320    0.6130    0.0000 C   0  0  0  0  0  0  0  0  0  0  0  0
    2.0000    0.6130    0.0000 C   0  0  0  0  0  0  0  0  0  0  0  0
    2.5000    1.4790    0.0000 C   0  0  0  0  0  0  0  0  0  0  0  0
    6.4641   -0.3870    0.0000 C   0  0  0  0  0  0  0  0  0  0  0  0
    7.3301   -0.8870    0.0000 C   0  0  0  0  0  0  0  0  0  0  0  0
    6.4641    0.6130    0.0000 C   0  0  0  0  0  0  0  0  0  0  0  0
    8.1962   -0.3870    0.0000 C   0  0  0  0  0  0  0  0  0  0  0  0
    8.1962    0.6130    0.0000 C   0  0  0  0  0  0  0  0  0  0  0  0
    7.3301    1.1130    0.0000 C   0  0  0  0  0  0  0  0  0  0  0  0
    9.1424   -0.6918    0.0000 C   0  0  0  0  0  0  0  0  0  0  0  0
    9.7260    0.1130    0.0000 C   0  0  0  0  0  0  0  0  0  0  0  0
    4.2646    1.5879    0.0000 H   0  0  0  0  0  0  0  0  0  0  0  0
    3.4675    1.5879    0.0000 H   0  0  0  0  0  0  0  0  0  0  0  0
    2.3894   -0.2794    0.0000 H   0  0  0  0  0  0  0  0  0  0  0  0
    2.7880   -0.9696    0.0000 H   0  0  0  0  0  0  0  0  0  0  0  0
    4.7320   -1.0070    0.0000 H   0  0  0  0  0  0  0  0  0  0  0  0
    5.3426    0.5053    0.0000 H   0  0  0  0  0  0  0  0  0  0  0  0
    4.9441    1.1956    0.0000 H   0  0  0  0  0  0  0  0  0  0  0  0
    3.4675   -1.3620    0.0000 H   0  0  0  0  0  0  0  0  0  0  0  0
    4.2646   -1.3620    0.0000 H   0  0  0  0  0  0  0  0  0  0  0  0
    2.0000    1.2330    0.0000 H   0  0  0  0  0  0  0  0  0  0  0  0
    3.0369    1.7890    0.0000 H   0  0  0  0  0  0  0  0  0  0  0  0
    1.3800    0.6130    0.0000 H   0  0  0  0  0  0  0  0  0  0  0  0
    2.0000   -0.0070    0.0000 H   0  0  0  0  0  0  0  0  0  0  0  0
    2.1900    2.0159    0.0000 H   0  0  0  0  0  0  0  0  0  0  0  0
    1.9631    1.1690    0.0000 H   0  0  0  0  0  0  0  0  0  0  0  0
    5.5981   -1.5070    0.0000 H   0  0  0  0  0  0  0  0  0  0  0  0
    7.3301   -1.5070    0.0000 H   0  0  0  0  0  0  0  0  0  0  0  0
    5.9272    0.9230    0.0000 H   0  0  0  0  0  0  0  0  0  0  0  0
    7.3301    1.7330    0.0000 H   0  0  0  0  0  0  0  0  0  0  0  0
    9.3350   -1.2811    0.0000 H   0  0  0  0  0  0  0  0  0  0  0  0
    9.3350    1.5070    0.0000 H   0  0  0  0  0  0  0  0  0  0  0  0
   10.3460    0.1130    0.0000 H   0  0  0  0  0  0  0  0  0  0  0  0
  1  6  1  0  0  0  0
  1 11  1  0  0  0  0
  1 34  1  0  0  0  0
  2 15  1  0  0  0  0
  2 18  1  0  0  0  0
  2 39  1  0  0  0  0
  3  4  1  0  0  0  0
  3  5  1  0  0  0  0
  3  9  1  0  0  0  0
  3 10  1  0  0  0  0
  4  7  1  0  0  0  0
  4 21  1  0  0  0  0
  4 22  1  0  0  0  0
  5  8  1  0  0  0  0
  5 19  1  0  0  0  0
  5 20  1  0  0  0  0
  6  7  1  0  0  0  0
  6  8  1  0  0  0  0
  6 23  1  0  0  0  0
  7 26  1  0  0  0  0
  7 27  1  0  0  0  0
  8 24  1  0  0  0  0
  8 25  1  0  0  0  0
  9 28  1  0  0  0  0
  9 30  1  0  0  0  0
  9 31  1  0  0  0  0
 10 29  1  0  0  0  0
 10 32  1  0  0  0  0
 10 33  1  0  0  0  0
 11 12  2  0  0  0  0
 11 13  1  0  0  0  0
 12 14  1  0  0  0  0
 12 35  1  0  0  0  0
 13 16  2  0  0  0  0
 13 36  1  0  0  0  0
 14 15  2  0  0  0  0
 14 17  1  0  0  0  0
 15 16  1  0  0  0  0
 16 37  1  0  0  0  0
 17 18  2  0  0  0  0
 17 38  1  0  0  0  0
 18 40  1  0  0  0  0
M  END
> <PUBCHEM_COMPOUND_CID>
64416668

> <PUBCHEM_COMPOUND_CANONICALIZED>
1

> <PUBCHEM_CACTVS_COMPLEXITY>
277

> <PUBCHEM_CACTVS_HBOND_ACCEPTOR>
1

> <PUBCHEM_CACTVS_HBOND_DONOR>
2

> <PUBCHEM_CACTVS_ROTATABLE_BOND>
2

> <PUBCHEM_CACTVS_SUBSKEYS>
AAADceB7AAAAAAAAAAAAAAAAAAAAAWAAAAAwYAAAAAAAAFgB8AAAHAAQAAAADijBHgQ+wPLJkACgAzRnRACCgCAxAiAI2aA4ZJgIIOLAkZGEIAhgkADIyAcQgMAPAACAQAACAAAQAQCAAAQAAAAAAAAAAA==

> <PUBCHEM_IUPAC_OPENEYE_NAME>
N-(4,4-dimethylcyclohexyl)-1H-indol-5-amine

> <PUBCHEM_IUPAC_CAS_NAME>
N-(4,4-dimethylcyclohexyl)-1H-indol-5-amine

> <PUBCHEM_IUPAC_NAME>
N-(4,4-dimethylcyclohexyl)-1H-indol-5-amine

> <PUBCHEM_IUPAC_SYSTEMATIC_NAME>
N-(4,4-dimethylcyclohexyl)-1H-indol-5-amine

> <PUBCHEM_IUPAC_TRADITIONAL_NAME>
(4,4-dimethylcyclohexyl)-(1H-indol-5-yl)amine

> <PUBCHEM_IUPAC_INCHI>
InChI=1S/C16H22N2/c1-16(2)8-5-13(6-9-16)18-14-3-4-15-12(11-14)7-10-17-15/h3-4,7,10-11,13,17-18H,5-6,8-9H2,1-2H3

> <PUBCHEM_IUPAC_INCHIKEY>
ZALHBWLDEGXCQA-UHFFFAOYSA-N

> <PUBCHEM_XLOGP3>
4.8

> <PUBCHEM_EXACT_MASS>
242.178299

> <PUBCHEM_MOLECULAR_FORMULA>
C16H22N2

> <PUBCHEM_MOLECULAR_WEIGHT>
242.35928

> <PUBCHEM_OPENEYE_CAN_SMILES>
CC1(CCC(CC1)NC2=CC3=C(C=C2)NC=C3)C

> <PUBCHEM_OPENEYE_ISO_SMILES>
CC1(CCC(CC1)NC2=CC3=C(C=C2)NC=C3)C

> <PUBCHEM_CACTVS_TPSA>
27.8

> <PUBCHEM_MONOISOTOPIC_WEIGHT>
242.178299

> <PUBCHEM_TOTAL_CHARGE>
0

> <PUBCHEM_HEAVY_ATOM_COUNT>
18

> <PUBCHEM_ATOM_DEF_STEREO_COUNT>
0

> <PUBCHEM_ATOM_UDEF_STEREO_COUNT>
0

> <PUBCHEM_BOND_DEF_STEREO_COUNT>
0

> <PUBCHEM_BOND_UDEF_STEREO_COUNT>
0

> <PUBCHEM_ISOTOPIC_ATOM_COUNT>
0

> <PUBCHEM_COMPONENT_COUNT>
1

> <PUBCHEM_CACTVS_TAUTO_COUNT>
1

> <PUBCHEM_COORDINATE_TYPE>
1
5
255

> <PUBCHEM_BONDANNOTATIONS>
11  12  8
11  13  8
12  14  8
13  16  8
14  15  8
14  17  8
15  16  8
17  18  8
2  15  8
2  18  8

$$$$
