45378666
  -OEChem-03071302522D

 38 39  0     0  0  0  0  0  0999 V2000
    6.3301    1.0000    0.0000 S   0  0  0  0  0  0  0  0  0  0  0  0
    4.5981    5.0000    0.0000 F   0  0  0  0  0  0  0  0  0  0  0  0
    5.5981    4.0000    0.0000 F   0  0  0  0  0  0  0  0  0  0  0  0
    3.5981    4.0000    0.0000 F   0  0  0  0  0  0  0  0  0  0  0  0
    5.8301    0.1340    0.0000 O   0  0  0  0  0  0  0  0  0  0  0  0
    6.8301    1.8660    0.0000 O   0  0  0  0  0  0  0  0  0  0  0  0
    2.0000    2.5000    0.0000 O   0  5  0  0  0  0  0  0  0  0  0  0
    2.8660    4.0000    0.0000 O   0  0  0  0  0  0  0  0  0  0  0  0
    8.0622   -4.0000    0.0000 O   0  0  0  0  0  0  0  0  0  0  0  0
    6.3301   -4.0000    0.0000 O   0  0  0  0  0  0  0  0  0  0  0  0
    7.1962    0.5000    0.0000 N   0  0  0  0  0  0  0  0  0  0  0  0
    2.8660    3.0000    0.0000 N   0  3  0  0  0  0  0  0  0  0  0  0
    5.4641    1.5000    0.0000 C   0  0  0  0  0  0  0  0  0  0  0  0
    4.5981    3.0000    0.0000 C   0  0  0  0  0  0  0  0  0  0  0  0
    5.4641    2.5000    0.0000 C   0  0  0  0  0  0  0  0  0  0  0  0
    4.5981    1.0000    0.0000 C   0  0  0  0  0  0  0  0  0  0  0  0
    3.7320    2.5000    0.0000 C   0  0  0  0  0  0  0  0  0  0  0  0
    7.1962   -0.5000    0.0000 C   0  0  0  0  0  0  0  0  0  0  0  0
    3.7320    1.5000    0.0000 C   0  0  0  0  0  0  0  0  0  0  0  0
    4.5981    4.0000    0.0000 C   0  0  0  0  0  0  0  0  0  0  0  0
    6.3301   -1.0000    0.0000 C   0  0  0  0  0  0  0  0  0  0  0  0
    8.0622   -1.0000    0.0000 C   0  0  0  0  0  0  0  0  0  0  0  0
    7.1962   -2.5000    0.0000 C   0  0  0  0  0  0  0  0  0  0  0  0
    6.3301   -2.0000    0.0000 C   0  0  0  0  0  0  0  0  0  0  0  0
    8.0622   -2.0000    0.0000 C   0  0  0  0  0  0  0  0  0  0  0  0
    7.1962   -3.5000    0.0000 C   0  0  0  0  0  0  0  0  0  0  0  0
    8.0622   -5.0000    0.0000 C   0  0  0  0  0  0  0  0  0  0  0  0
    6.0010    2.8100    0.0000 H   0  0  0  0  0  0  0  0  0  0  0  0
    7.7331    0.8100    0.0000 H   0  0  0  0  0  0  0  0  0  0  0  0
    4.5981    0.3800    0.0000 H   0  0  0  0  0  0  0  0  0  0  0  0
    3.1951    1.1900    0.0000 H   0  0  0  0  0  0  0  0  0  0  0  0
    5.7932   -0.6900    0.0000 H   0  0  0  0  0  0  0  0  0  0  0  0
    8.5991   -0.6900    0.0000 H   0  0  0  0  0  0  0  0  0  0  0  0
    5.7932   -2.3100    0.0000 H   0  0  0  0  0  0  0  0  0  0  0  0
    8.5991   -2.3100    0.0000 H   0  0  0  0  0  0  0  0  0  0  0  0
    7.4422   -5.0000    0.0000 H   0  0  0  0  0  0  0  0  0  0  0  0
    8.0622   -5.6200    0.0000 H   0  0  0  0  0  0  0  0  0  0  0  0
    8.6822   -5.0000    0.0000 H   0  0  0  0  0  0  0  0  0  0  0  0
  1  5  2  0  0  0  0
  1  6  2  0  0  0  0
  1 11  1  0  0  0  0
  1 13  1  0  0  0  0
  2 20  1  0  0  0  0
  3 20  1  0  0  0  0
  4 20  1  0  0  0  0
  7 12  1  0  0  0  0
  8 12  2  0  0  0  0
  9 26  1  0  0  0  0
  9 27  1  0  0  0  0
 10 26  2  0  0  0  0
 11 18  1  0  0  0  0
 11 29  1  0  0  0  0
 12 17  1  0  0  0  0
 13 15  2  0  0  0  0
 13 16  1  0  0  0  0
 14 15  1  0  0  0  0
 14 17  2  0  0  0  0
 14 20  1  0  0  0  0
 15 28  1  0  0  0  0
 16 19  2  0  0  0  0
 16 30  1  0  0  0  0
 17 19  1  0  0  0  0
 18 21  2  0  0  0  0
 18 22  1  0  0  0  0
 19 31  1  0  0  0  0
 21 24  1  0  0  0  0
 21 32  1  0  0  0  0
 22 25  2  0  0  0  0
 22 33  1  0  0  0  0
 23 24  2  0  0  0  0
 23 25  1  0  0  0  0
 23 26  1  0  0  0  0
 24 34  1  0  0  0  0
 25 35  1  0  0  0  0
 27 36  1  0  0  0  0
 27 37  1  0  0  0  0
 27 38  1  0  0  0  0
M  CHG  2   7  -1  12   1
M  END
> <PUBCHEM_COMPOUND_CID>
45378666

> <PUBCHEM_COMPOUND_CANONICALIZED>
1

> <PUBCHEM_CACTVS_COMPLEXITY>
650

> <PUBCHEM_CACTVS_HBOND_ACCEPTOR>
10

> <PUBCHEM_CACTVS_HBOND_DONOR>
1

> <PUBCHEM_CACTVS_ROTATABLE_BOND>
5

> <PUBCHEM_CACTVS_SUBSKEYS>
AAADccBzOYBAAAAAAAAAAAAAAAAAAAAAAAAwYAAAAAAAAAABQAAAHwQUQAAADAiB2BIyyYBQRAKJAiTSS3DCABAkAgAoiBkAbMoIJjKAtZmAMQBk0AEI6YeY2SGeCAQAgAACAAAQCAEAAAQAAAAAAAAAAA==

> <PUBCHEM_IUPAC_OPENEYE_NAME>
methyl 4-[[4-nitro-3-(trifluoromethyl)phenyl]sulfonylamino]benzoate

> <PUBCHEM_IUPAC_CAS_NAME>
4-[[4-nitro-3-(trifluoromethyl)phenyl]sulfonylamino]benzoic acid methyl ester

> <PUBCHEM_IUPAC_NAME>
methyl 4-[[4-nitro-3-(trifluoromethyl)phenyl]sulfonylamino]benzoate

> <PUBCHEM_IUPAC_SYSTEMATIC_NAME>
methyl 4-[[4-nitro-3-(trifluoromethyl)phenyl]sulfonylamino]benzoate

> <PUBCHEM_IUPAC_TRADITIONAL_NAME>
4-[[4-nitro-3-(trifluoromethyl)phenyl]sulfonylamino]benzoic acid methyl ester

> <PUBCHEM_IUPAC_INCHI>
InChI=1S/C15H11F3N2O6S/c1-26-14(21)9-2-4-10(5-3-9)19-27(24,25)11-6-7-13(20(22)23)12(8-11)15(16,17)18/h2-8,19H,1H3

> <PUBCHEM_IUPAC_INCHIKEY>
WVFYLWBKTNSYAX-UHFFFAOYSA-N

> <PUBCHEM_XLOGP3>
3.5

> <PUBCHEM_EXACT_MASS>
404.028992

> <PUBCHEM_MOLECULAR_FORMULA>
C15H11F3N2O6S

> <PUBCHEM_MOLECULAR_WEIGHT>
404.31785

> <PUBCHEM_OPENEYE_CAN_SMILES>
COC(=O)C1=CC=C(C=C1)NS(=O)(=O)C2=CC(=C(C=C2)[N+](=O)[O-])C(F)(F)F

> <PUBCHEM_OPENEYE_ISO_SMILES>
COC(=O)C1=CC=C(C=C1)NS(=O)(=O)C2=CC(=C(C=C2)[N+](=O)[O-])C(F)(F)F

> <PUBCHEM_CACTVS_TPSA>
127

> <PUBCHEM_MONOISOTOPIC_WEIGHT>
404.028992

> <PUBCHEM_TOTAL_CHARGE>
0

> <PUBCHEM_HEAVY_ATOM_COUNT>
27

> <PUBCHEM_ATOM_DEF_STEREO_COUNT>
0

> <PUBCHEM_ATOM_UDEF_STEREO_COUNT>
0

> <PUBCHEM_BOND_DEF_STEREO_COUNT>
0

> <PUBCHEM_BOND_UDEF_STEREO_COUNT>
0

> <PUBCHEM_ISOTOPIC_ATOM_COUNT>
0

> <PUBCHEM_COMPONENT_COUNT>
1

> <PUBCHEM_CACTVS_TAUTO_COUNT>
3

> <PUBCHEM_COORDINATE_TYPE>
1
5
255

> <PUBCHEM_BONDANNOTATIONS>
13  15  8
13  16  8
14  15  8
14  17  8
16  19  8
17  19  8
18  21  8
18  22  8
21  24  8
22  25  8
23  24  8
23  25  8

$$$$
45379029
  -OEChem-03071302522D

 48 50  0     1  0  0  0  0  0999 V2000
    8.5115    3.3034    0.0000 P   0  0  0  0  0  0  0  0  0  0  0  0
    7.8666   -0.1498    0.0000 O   0  0  0  0  0  0  0  0  0  0  0  0
   10.2126   -1.2416    0.0000 O   0  0  0  0  0  0  0  0  0  0  0  0
   10.2164    0.9340    0.0000 O   0  0  0  0  0  0  0  0  0  0  0  0
    8.8189    2.3518    0.0000 O   0  0  0  0  0  0  0  0  0  0  0  0
    6.3301   -4.7150    0.0000 O   0  0  0  0  0  0  0  0  0  0  0  0
    8.2041    4.2550    0.0000 O   0  0  0  0  0  0  0  0  0  0  0  0
    9.4631    3.6108    0.0000 O   0  0  0  0  0  0  0  0  0  0  0  0
    7.5599    2.9960    0.0000 O   0  0  0  0  0  0  0  0  0  0  0  0
    8.1424   -1.9103    0.0000 N   0  0  0  0  0  0  0  0  0  0  0  0
    8.1424   -3.5198    0.0000 N   0  0  0  0  0  0  0  0  0  0  0  0
    5.4641   -3.2150    0.0000 N   0  0  0  0  0  0  0  0  0  0  0  0
    6.3301   -1.7150    0.0000 N   0  0  0  0  0  0  0  0  0  0  0  0
    9.4046   -0.6524    0.0000 C   0  0  1  0  0  0  0  0  0  0  0  0
    8.4530   -0.9598    0.0000 C   0  0  1  0  0  0  0  0  0  0  0  0
    9.4064    0.3476    0.0000 C   0  0  1  0  0  0  0  0  0  0  0  0
    8.4558    0.6582    0.0000 C   0  0  1  0  0  0  0  0  0  0  0  0
    8.1485    1.6098    0.0000 C   0  0  0  0  0  0  0  0  0  0  0  0
    7.1962   -2.2150    0.0000 C   0  0  0  0  0  0  0  0  0  0  0  0
    8.7260   -2.7150    0.0000 C   0  0  0  0  0  0  0  0  0  0  0  0
    7.1962   -3.2150    0.0000 C   0  0  0  0  0  0  0  0  0  0  0  0
    6.3301   -3.7150    0.0000 C   0  0  0  0  0  0  0  0  0  0  0  0
    4.5981   -3.7150    0.0000 C   0  0  0  0  0  0  0  0  0  0  0  0
    5.4641   -2.2150    0.0000 C   0  0  0  0  0  0  0  0  0  0  0  0
    3.7320   -3.2150    0.0000 C   0  0  0  0  0  0  0  0  0  0  0  0
    2.8660   -3.7150    0.0000 C   0  0  0  0  0  0  0  0  0  0  0  0
    2.0000   -3.2150    0.0000 C   0  0  0  0  0  0  0  0  0  0  0  0
    9.3066   -1.2646    0.0000 H   0  0  0  0  0  0  0  0  0  0  0  0
    7.8405   -1.0557    0.0000 H   0  0  0  0  0  0  0  0  0  0  0  0
    9.9583    0.0652    0.0000 H   0  0  0  0  0  0  0  0  0  0  0  0
    7.8436    0.7563    0.0000 H   0  0  0  0  0  0  0  0  0  0  0  0
    7.7676    2.0991    0.0000 H   0  0  0  0  0  0  0  0  0  0  0  0
    7.6005    1.3197    0.0000 H   0  0  0  0  0  0  0  0  0  0  0  0
   10.7795   -0.9904    0.0000 H   0  0  0  0  0  0  0  0  0  0  0  0
   10.7823    0.6808    0.0000 H   0  0  0  0  0  0  0  0  0  0  0  0
    9.3460   -2.7150    0.0000 H   0  0  0  0  0  0  0  0  0  0  0  0
    4.1996   -4.1900    0.0000 H   0  0  0  0  0  0  0  0  0  0  0  0
    4.9966   -4.1900    0.0000 H   0  0  0  0  0  0  0  0  0  0  0  0
    4.9272   -1.9050    0.0000 H   0  0  0  0  0  0  0  0  0  0  0  0
    4.1306   -2.7401    0.0000 H   0  0  0  0  0  0  0  0  0  0  0  0
    3.3335   -2.7401    0.0000 H   0  0  0  0  0  0  0  0  0  0  0  0
    2.4675   -4.1900    0.0000 H   0  0  0  0  0  0  0  0  0  0  0  0
    3.2646   -4.1900    0.0000 H   0  0  0  0  0  0  0  0  0  0  0  0
    2.3100   -2.6781    0.0000 H   0  0  0  0  0  0  0  0  0  0  0  0
    1.4631   -2.9050    0.0000 H   0  0  0  0  0  0  0  0  0  0  0  0
    1.6900   -3.7520    0.0000 H   0  0  0  0  0  0  0  0  0  0  0  0
    9.5930    4.2170    0.0000 H   0  0  0  0  0  0  0  0  0  0  0  0
    8.6198    4.7150    0.0000 H   0  0  0  0  0  0  0  0  0  0  0  0
  1  5  1  0  0  0  0
  1  7  1  0  0  0  0
  1  8  1  0  0  0  0
  1  9  2  0  0  0  0
  2 15  1  0  0  0  0
  2 17  1  0  0  0  0
 14  3  1  1  0  0  0
  3 34  1  0  0  0  0
 16  4  1  1  0  0  0
  4 35  1  0  0  0  0
  5 18  1  0  0  0  0
  6 22  2  0  0  0  0
  7 48  1  0  0  0  0
  8 47  1  0  0  0  0
 15 10  1  6  0  0  0
 10 19  1  0  0  0  0
 10 20  1  0  0  0  0
 11 20  2  0  0  0  0
 11 21  1  0  0  0  0
 12 22  1  0  0  0  0
 12 23  1  0  0  0  0
 12 24  1  0  0  0  0
 13 19  1  0  0  0  0
 13 24  2  0  0  0  0
 14 15  1  0  0  0  0
 14 16  1  0  0  0  0
 14 28  1  0  0  0  0
 15 29  1  0  0  0  0
 16 17  1  0  0  0  0
 16 30  1  0  0  0  0
 17 18  1  6  0  0  0
 17 31  1  0  0  0  0
 18 32  1  0  0  0  0
 18 33  1  0  0  0  0
 19 21  2  0  0  0  0
 20 36  1  0  0  0  0
 21 22  1  0  0  0  0
 23 25  1  0  0  0  0
 23 37  1  0  0  0  0
 23 38  1  0  0  0  0
 24 39  1  0  0  0  0
 25 26  1  0  0  0  0
 25 40  1  0  0  0  0
 25 41  1  0  0  0  0
 26 27  1  0  0  0  0
 26 42  1  0  0  0  0
 26 43  1  0  0  0  0
 27 44  1  0  0  0  0
 27 45  1  0  0  0  0
 27 46  1  0  0  0  0
M  END
> <PUBCHEM_COMPOUND_CID>
45379029

> <PUBCHEM_COMPOUND_CANONICALIZED>
1

> <PUBCHEM_CACTVS_COMPLEXITY>
630

> <PUBCHEM_CACTVS_HBOND_ACCEPTOR>
10

> <PUBCHEM_CACTVS_HBOND_DONOR>
4

> <PUBCHEM_CACTVS_ROTATABLE_BOND>
7

> <PUBCHEM_CACTVS_SUBSKEYS>
AAADceBzvAIAAAAAAAAAAAAAAAAAAWJAAAAgAAAAAAAAAEABgAAAHgAACCAACBzhlgYHsBcMFxCoQQdxdICAgC0XEKABUAGoVECDWApAyCAeQIgPBgLTAGDwMAIAAAAAAAAAAAAAAAAAAAAAAAAAAAAAAA==

> <PUBCHEM_IUPAC_OPENEYE_NAME>
[(2R,3S,4R,5R)-5-(1-butyl-6-oxo-purin-9-yl)-3,4-dihydroxy-tetrahydrofuran-2-yl]methyl dihydrogen phosphate

> <PUBCHEM_IUPAC_CAS_NAME>
[(2R,3S,4R,5R)-5-(1-butyl-6-oxo-9-purinyl)-3,4-dihydroxy-2-oxolanyl]methyl dihydrogen phosphate

> <PUBCHEM_IUPAC_NAME>
[(2R,3S,4R,5R)-5-(1-butyl-6-oxopurin-9-yl)-3,4-dihydroxyoxolan-2-yl]methyl dihydrogen phosphate

> <PUBCHEM_IUPAC_SYSTEMATIC_NAME>
[(2R,3S,4R,5R)-5-(1-butyl-6-oxidanylidene-purin-9-yl)-3,4-bis(oxidanyl)oxolan-2-yl]methyl dihydrogen phosphate

> <PUBCHEM_IUPAC_TRADITIONAL_NAME>
[(2R,3S,4R,5R)-5-(1-butyl-6-keto-purin-9-yl)-3,4-dihydroxy-tetrahydrofuran-2-yl]methyl dihydrogen phosphate

> <PUBCHEM_IUPAC_INCHI>
InChI=1S/C14H21N4O8P/c1-2-3-4-17-6-16-12-9(13(17)21)15-7-18(12)14-11(20)10(19)8(26-14)5-25-27(22,23)24/h6-8,10-11,14,19-20H,2-5H2,1H3,(H2,22,23,24)/t8-,10-,11-,14-/m1/s1

> <PUBCHEM_IUPAC_INCHIKEY>
ZDTQNBCEUZZMSG-IDTAVKCVSA-N

> <PUBCHEM_XLOGP3>
-1.5

> <PUBCHEM_EXACT_MASS>
404.1097

> <PUBCHEM_MOLECULAR_FORMULA>
C14H21N4O8P

> <PUBCHEM_MOLECULAR_WEIGHT>
404.312302

> <PUBCHEM_OPENEYE_CAN_SMILES>
CCCCN1C=NC2=C(C1=O)N=CN2C3C(C(C(O3)COP(=O)(O)O)O)O

> <PUBCHEM_OPENEYE_ISO_SMILES>
CCCCN1C=NC2=C(C1=O)N=CN2[C@H]3[C@@H]([C@@H]([C@H](O3)COP(=O)(O)O)O)O

> <PUBCHEM_CACTVS_TPSA>
167

> <PUBCHEM_MONOISOTOPIC_WEIGHT>
404.1097

> <PUBCHEM_TOTAL_CHARGE>
0

> <PUBCHEM_HEAVY_ATOM_COUNT>
27

> <PUBCHEM_ATOM_DEF_STEREO_COUNT>
4

> <PUBCHEM_ATOM_UDEF_STEREO_COUNT>
0

> <PUBCHEM_BOND_DEF_STEREO_COUNT>
0

> <PUBCHEM_BOND_UDEF_STEREO_COUNT>
0

> <PUBCHEM_ISOTOPIC_ATOM_COUNT>
0

> <PUBCHEM_COMPONENT_COUNT>
1

> <PUBCHEM_CACTVS_TAUTO_COUNT>
1

> <PUBCHEM_COORDINATE_TYPE>
1
5
255

> <PUBCHEM_BONDANNOTATIONS>
15  10  6
10  19  8
10  20  8
11  20  8
11  21  8
12  22  8
12  24  8
13  19  8
13  24  8
17  18  6
19  21  8
21  22  8
14  3  5
16  4  5

$$$$
45379211
  -OEChem-03071302522D

 35 36  0     0  0  0  0  0  0999 V2000
    2.0000   -4.7500    0.0000 Br  0  0  0  0  0  0  0  0  0  0  0  0
    2.8660   -1.2500    0.0000 O   0  0  0  0  0  0  0  0  0  0  0  0
    4.5981   -1.2500    0.0000 N   0  0  0  0  0  0  0  0  0  0  0  0
    3.7320   -2.7500    0.0000 C   0  0  0  0  0  0  0  0  0  0  0  0
    4.5981    1.7500    0.0000 C   0  0  0  0  0  0  0  0  0  0  0  0
    2.8660   -3.2500    0.0000 C   0  0  0  0  0  0  0  0  0  0  0  0
    4.5981   -0.2500    0.0000 C   0  0  0  0  0  0  0  0  0  0  0  0
    4.5981    2.7500    0.0000 C   0  0  0  0  0  0  0  0  0  0  0  0
    3.7320   -1.7500    0.0000 C   0  0  0  0  0  0  0  0  0  0  0  0
    3.7320    1.2500    0.0000 C   0  0  0  0  0  0  0  0  0  0  0  0
    5.4641    1.2500    0.0000 C   0  0  0  0  0  0  0  0  0  0  0  0
    3.7320    0.2500    0.0000 C   0  0  0  0  0  0  0  0  0  0  0  0
    5.4641    0.2500    0.0000 C   0  0  0  0  0  0  0  0  0  0  0  0
    2.8660   -4.2500    0.0000 C   0  0  0  0  0  0  0  0  0  0  0  0
    5.4641    3.2500    0.0000 C   0  0  0  0  0  0  0  0  0  0  0  0
    3.7320    3.2500    0.0000 C   0  0  0  0  0  0  0  0  0  0  0  0
    5.4641    4.2500    0.0000 C   0  0  0  0  0  0  0  0  0  0  0  0
    3.7320    4.2500    0.0000 C   0  0  0  0  0  0  0  0  0  0  0  0
    4.5981    4.7500    0.0000 C   0  0  0  0  0  0  0  0  0  0  0  0
    3.9441   -3.3326    0.0000 H   0  0  0  0  0  0  0  0  0  0  0  0
    4.3426   -2.6423    0.0000 H   0  0  0  0  0  0  0  0  0  0  0  0
    2.6540   -2.6674    0.0000 H   0  0  0  0  0  0  0  0  0  0  0  0
    2.2554   -3.3577    0.0000 H   0  0  0  0  0  0  0  0  0  0  0  0
    5.1350   -1.5600    0.0000 H   0  0  0  0  0  0  0  0  0  0  0  0
    3.1951    1.5600    0.0000 H   0  0  0  0  0  0  0  0  0  0  0  0
    6.0010    1.5600    0.0000 H   0  0  0  0  0  0  0  0  0  0  0  0
    3.1951   -0.0600    0.0000 H   0  0  0  0  0  0  0  0  0  0  0  0
    6.0010   -0.0600    0.0000 H   0  0  0  0  0  0  0  0  0  0  0  0
    3.0781   -4.8326    0.0000 H   0  0  0  0  0  0  0  0  0  0  0  0
    3.4766   -4.1423    0.0000 H   0  0  0  0  0  0  0  0  0  0  0  0
    6.0010    2.9400    0.0000 H   0  0  0  0  0  0  0  0  0  0  0  0
    3.1951    2.9400    0.0000 H   0  0  0  0  0  0  0  0  0  0  0  0
    6.0010    4.5600    0.0000 H   0  0  0  0  0  0  0  0  0  0  0  0
    3.1951    4.5600    0.0000 H   0  0  0  0  0  0  0  0  0  0  0  0
    4.5981    5.3700    0.0000 H   0  0  0  0  0  0  0  0  0  0  0  0
  1 14  1  0  0  0  0
  2  9  2  0  0  0  0
  3  7  1  0  0  0  0
  3  9  1  0  0  0  0
  3 24  1  0  0  0  0
  4  6  1  0  0  0  0
  4  9  1  0  0  0  0
  4 20  1  0  0  0  0
  4 21  1  0  0  0  0
  5  8  1  0  0  0  0
  5 10  2  0  0  0  0
  5 11  1  0  0  0  0
  6 14  1  0  0  0  0
  6 22  1  0  0  0  0
  6 23  1  0  0  0  0
  7 12  2  0  0  0  0
  7 13  1  0  0  0  0
  8 15  2  0  0  0  0
  8 16  1  0  0  0  0
 10 12  1  0  0  0  0
 10 25  1  0  0  0  0
 11 13  2  0  0  0  0
 11 26  1  0  0  0  0
 12 27  1  0  0  0  0
 13 28  1  0  0  0  0
 14 29  1  0  0  0  0
 14 30  1  0  0  0  0
 15 17  1  0  0  0  0
 15 31  1  0  0  0  0
 16 18  2  0  0  0  0
 16 32  1  0  0  0  0
 17 19  2  0  0  0  0
 17 33  1  0  0  0  0
 18 19  1  0  0  0  0
 18 34  1  0  0  0  0
 19 35  1  0  0  0  0
M  END
> <PUBCHEM_COMPOUND_CID>
45379211

> <PUBCHEM_COMPOUND_CANONICALIZED>
1

> <PUBCHEM_CACTVS_COMPLEXITY>
268

> <PUBCHEM_CACTVS_HBOND_ACCEPTOR>
1

> <PUBCHEM_CACTVS_HBOND_DONOR>
1

> <PUBCHEM_CACTVS_ROTATABLE_BOND>
5

> <PUBCHEM_CACTVS_SUBSKEYS>
AAADceB6IAAAEAAAAAAAAAAAAAAAAAAAAAAwYAAAAAAAAAABQAAAHgBQAAABTAiBmAAwwILAAACIAiVSUACCAAAhAgAIiAEAZKgIIDLAkZGEIAhglADIyAcQgMAOiAAAAAAAAAAQAAAAAAAAAAAAAAAAAA==

> <PUBCHEM_IUPAC_OPENEYE_NAME>
4-bromo-N-(4-phenylphenyl)butanamide

> <PUBCHEM_IUPAC_CAS_NAME>
4-bromo-N-(4-phenylphenyl)butanamide

> <PUBCHEM_IUPAC_NAME>
4-bromo-N-(4-phenylphenyl)butanamide

> <PUBCHEM_IUPAC_SYSTEMATIC_NAME>
4-bromanyl-N-(4-phenylphenyl)butanamide

> <PUBCHEM_IUPAC_TRADITIONAL_NAME>
4-bromo-N-(4-phenylphenyl)butyramide

> <PUBCHEM_IUPAC_INCHI>
InChI=1S/C16H16BrNO/c17-12-4-7-16(19)18-15-10-8-14(9-11-15)13-5-2-1-3-6-13/h1-3,5-6,8-11H,4,7,12H2,(H,18,19)

> <PUBCHEM_IUPAC_INCHIKEY>
VDAYQNDJALSVHG-UHFFFAOYSA-N

> <PUBCHEM_XLOGP3>
3.9

> <PUBCHEM_EXACT_MASS>
317.041526

> <PUBCHEM_MOLECULAR_FORMULA>
C16H16BrNO

> <PUBCHEM_MOLECULAR_WEIGHT>
318.20834

> <PUBCHEM_OPENEYE_CAN_SMILES>
C1=CC=C(C=C1)C2=CC=C(C=C2)NC(=O)CCCBr

> <PUBCHEM_OPENEYE_ISO_SMILES>
C1=CC=C(C=C1)C2=CC=C(C=C2)NC(=O)CCCBr

> <PUBCHEM_CACTVS_TPSA>
29.1

> <PUBCHEM_MONOISOTOPIC_WEIGHT>
317.041526

> <PUBCHEM_TOTAL_CHARGE>
0

> <PUBCHEM_HEAVY_ATOM_COUNT>
19

> <PUBCHEM_ATOM_DEF_STEREO_COUNT>
0

> <PUBCHEM_ATOM_UDEF_STEREO_COUNT>
0

> <PUBCHEM_BOND_DEF_STEREO_COUNT>
0

> <PUBCHEM_BOND_UDEF_STEREO_COUNT>
0

> <PUBCHEM_ISOTOPIC_ATOM_COUNT>
0

> <PUBCHEM_COMPONENT_COUNT>
1

> <PUBCHEM_CACTVS_TAUTO_COUNT>
3

> <PUBCHEM_COORDINATE_TYPE>
1
5
255

> <PUBCHEM_BONDANNOTATIONS>
10  12  8
11  13  8
15  17  8
16  18  8
17  19  8
18  19  8
5  10  8
5  11  8
7  12  8
7  13  8
8  15  8
8  16  8

$$$$
45379416
  -OEChem-03071302522D

 22 23  0     0  0  0  0  0  0999 V2000
    2.0000   -1.3776    0.0000 Br  0  0  0  0  0  0  0  0  0  0  0  0
    5.5443    0.4271    0.0000 N   0  0  0  0  0  0  0  0  0  0  0  0
    4.5981    0.1224    0.0000 C   0  0  0  0  0  0  0  0  0  0  0  0
    4.5981   -0.8776    0.0000 C   0  0  0  0  0  0  0  0  0  0  0  0
    6.1279   -0.3776    0.0000 C   0  0  0  0  0  0  0  0  0  0  0  0
    5.5443   -1.1824    0.0000 C   0  0  0  0  0  0  0  0  0  0  0  0
    3.7320    0.6224    0.0000 C   0  0  0  0  0  0  0  0  0  0  0  0
    5.8550    1.3776    0.0000 C   0  0  0  0  0  0  0  0  0  0  0  0
    3.7320   -1.3776    0.0000 C   0  0  0  0  0  0  0  0  0  0  0  0
    7.1279   -0.3776    0.0000 C   0  0  0  0  0  0  0  0  0  0  0  0
    2.8660    0.1224    0.0000 C   0  0  0  0  0  0  0  0  0  0  0  0
    2.8660   -0.8776    0.0000 C   0  0  0  0  0  0  0  0  0  0  0  0
    5.7369   -1.7717    0.0000 H   0  0  0  0  0  0  0  0  0  0  0  0
    3.7320    1.2424    0.0000 H   0  0  0  0  0  0  0  0  0  0  0  0
    6.4443    1.1850    0.0000 H   0  0  0  0  0  0  0  0  0  0  0  0
    6.0476    1.9670    0.0000 H   0  0  0  0  0  0  0  0  0  0  0  0
    5.2656    1.5702    0.0000 H   0  0  0  0  0  0  0  0  0  0  0  0
    3.7320   -1.9976    0.0000 H   0  0  0  0  0  0  0  0  0  0  0  0
    7.1279   -0.9976    0.0000 H   0  0  0  0  0  0  0  0  0  0  0  0
    7.7479   -0.3776    0.0000 H   0  0  0  0  0  0  0  0  0  0  0  0
    7.1279    0.2424    0.0000 H   0  0  0  0  0  0  0  0  0  0  0  0
    2.3291    0.4324    0.0000 H   0  0  0  0  0  0  0  0  0  0  0  0
  1 12  1  0  0  0  0
  2  3  1  0  0  0  0
  2  5  1  0  0  0  0
  2  8  1  0  0  0  0
  3  4  2  0  0  0  0
  3  7  1  0  0  0  0
  4  6  1  0  0  0  0
  4  9  1  0  0  0  0
  5  6  2  0  0  0  0
  5 10  1  0  0  0  0
  6 13  1  0  0  0  0
  7 11  2  0  0  0  0
  7 14  1  0  0  0  0
  8 15  1  0  0  0  0
  8 16  1  0  0  0  0
  8 17  1  0  0  0  0
  9 12  2  0  0  0  0
  9 18  1  0  0  0  0
 10 19  1  0  0  0  0
 10 20  1  0  0  0  0
 10 21  1  0  0  0  0
 11 12  1  0  0  0  0
 11 22  1  0  0  0  0
M  END
> <PUBCHEM_COMPOUND_CID>
45379416

> <PUBCHEM_COMPOUND_CANONICALIZED>
1

> <PUBCHEM_CACTVS_COMPLEXITY>
171

> <PUBCHEM_CACTVS_HBOND_ACCEPTOR>
0

> <PUBCHEM_CACTVS_HBOND_DONOR>
0

> <PUBCHEM_CACTVS_ROTATABLE_BOND>
0

> <PUBCHEM_CACTVS_SUBSKEYS>
AAADccByAAAAEAAAAAAAAAAAAAAAAWAAAAAwAAAAAAAAAFgB8AAAHABAAAABrAiBHgQywPMMEACgAyRiRACCgCAhAiQI2CA4ZLgIIOLAkZGEIAhggADIyhcQgIAOAAAgEAACAAAAAEAgAAQAAAAAAAAAAA==

> <PUBCHEM_IUPAC_OPENEYE_NAME>
5-bromo-1,2-dimethyl-indole

> <PUBCHEM_IUPAC_CAS_NAME>
5-bromo-1,2-dimethylindole

> <PUBCHEM_IUPAC_NAME>
5-bromo-1,2-dimethylindole

> <PUBCHEM_IUPAC_SYSTEMATIC_NAME>
5-bromanyl-1,2-dimethyl-indole

> <PUBCHEM_IUPAC_TRADITIONAL_NAME>
5-bromo-1,2-dimethyl-indole

> <PUBCHEM_IUPAC_INCHI>
InChI=1S/C10H10BrN/c1-7-5-8-6-9(11)3-4-10(8)12(7)2/h3-6H,1-2H3

> <PUBCHEM_IUPAC_INCHIKEY>
CTLFMCACJRWVLM-UHFFFAOYSA-N

> <PUBCHEM_XLOGP3>
3.5

> <PUBCHEM_EXACT_MASS>
222.999661

> <PUBCHEM_MOLECULAR_FORMULA>
C10H10BrN

> <PUBCHEM_MOLECULAR_WEIGHT>
224.0971

> <PUBCHEM_OPENEYE_CAN_SMILES>
CC1=CC2=C(N1C)C=CC(=C2)Br

> <PUBCHEM_OPENEYE_ISO_SMILES>
CC1=CC2=C(N1C)C=CC(=C2)Br

> <PUBCHEM_CACTVS_TPSA>
4.9

> <PUBCHEM_MONOISOTOPIC_WEIGHT>
222.999661

> <PUBCHEM_TOTAL_CHARGE>
0

> <PUBCHEM_HEAVY_ATOM_COUNT>
12

> <PUBCHEM_ATOM_DEF_STEREO_COUNT>
0

> <PUBCHEM_ATOM_UDEF_STEREO_COUNT>
0

> <PUBCHEM_BOND_DEF_STEREO_COUNT>
0

> <PUBCHEM_BOND_UDEF_STEREO_COUNT>
0

> <PUBCHEM_ISOTOPIC_ATOM_COUNT>
0

> <PUBCHEM_COMPONENT_COUNT>
1

> <PUBCHEM_CACTVS_TAUTO_COUNT>
1

> <PUBCHEM_COORDINATE_TYPE>
1
5
255

> <PUBCHEM_BONDANNOTATIONS>
11  12  8
2  3  8
2  5  8
3  4  8
3  7  8
4  6  8
4  9  8
5  6  8
7  11  8
9  12  8

$$$$
45379701
  -OEChem-03071302522D

 14 14  0     0  0  0  0  0  0999 V2000
    2.0000    0.8450    0.0000 Br  0  0  0  0  0  0  0  0  0  0  0  0
    3.7320   -2.1550    0.0000 Br  0  0  0  0  0  0  0  0  0  0  0  0
    3.7320    1.8450    0.0000 N   0  0  0  0  0  0  0  0  0  0  0  0
    3.7320    0.8450    0.0000 C   1  0  0  0  0  0  0  0  0  0  0  0
    2.8660    0.3450    0.0000 C   1  0  0  0  0  0  0  0  0  0  0  0
    4.5981    0.3450    0.0000 C   1  0  0  0  0  0  0  0  0  0  0  0
    2.8660   -0.6550    0.0000 C   1  0  0  0  0  0  0  0  0  0  0  0
    4.5981   -0.6550    0.0000 C   1  0  0  0  0  0  0  0  0  0  0  0
    3.7320   -1.1550    0.0000 C   1  0  0  0  0  0  0  0  0  0  0  0
    5.1350    0.6550    0.0000 H   0  0  0  0  0  0  0  0  0  0  0  0
    2.3291   -0.9650    0.0000 H   0  0  0  0  0  0  0  0  0  0  0  0
    5.1350   -0.9650    0.0000 H   0  0  0  0  0  0  0  0  0  0  0  0
    4.2690    2.1550    0.0000 H   0  0  0  0  0  0  0  0  0  0  0  0
    3.1951    2.1550    0.0000 H   0  0  0  0  0  0  0  0  0  0  0  0
  1  5  1  0  0  0  0
  2  9  1  0  0  0  0
  3  4  1  0  0  0  0
  3 13  1  0  0  0  0
  3 14  1  0  0  0  0
  4  5  2  0  0  0  0
  4  6  1  0  0  0  0
  5  7  1  0  0  0  0
  6  8  2  0  0  0  0
  6 10  1  0  0  0  0
  7  9  2  0  0  0  0
  7 11  1  0  0  0  0
  8  9  1  0  0  0  0
  8 12  1  0  0  0  0
M  ISO  6   4  13   5  13   6  13   7  13   8  13   9  13
M  END
> <PUBCHEM_COMPOUND_CID>
45379701

> <PUBCHEM_COMPOUND_CANONICALIZED>
1

> <PUBCHEM_CACTVS_COMPLEXITY>
97.1

> <PUBCHEM_CACTVS_HBOND_ACCEPTOR>
1

> <PUBCHEM_CACTVS_HBOND_DONOR>
1

> <PUBCHEM_CACTVS_ROTATABLE_BOND>
0

> <PUBCHEM_CACTVS_SUBSKEYS>
AAADcYBiAAAAGAAAAAAAAAAAAAAAAAAAAAAwAAAAAAAAAAABAAAAHABQAAABqAiBEAAwwIBAAACAACRCQACCAAAgAgQIiAAAZKgIICKAkZGAIABgkAAIyhcQAAAAAAAgAAAgAAgAAEAAAEAAEAAAAAAAAA==

> <PUBCHEM_IUPAC_OPENEYE_NAME>
2,4-dibromoaniline

> <PUBCHEM_IUPAC_CAS_NAME>
2,4-dibromoaniline

> <PUBCHEM_IUPAC_NAME>
2,4-dibromoaniline

> <PUBCHEM_IUPAC_SYSTEMATIC_NAME>
2,4-bis(bromanyl)aniline

> <PUBCHEM_IUPAC_TRADITIONAL_NAME>
(2,4-dibromophenyl)amine

> <PUBCHEM_IUPAC_INCHI>
InChI=1S/C6H5Br2N/c7-4-1-2-6(9)5(8)3-4/h1-3H,9H2/i1+1,2+1,3+1,4+1,5+1,6+1

> <PUBCHEM_IUPAC_INCHIKEY>
DYSRXWYRUJCNFI-IDEBNGHGSA-N

> <PUBCHEM_XLOGP3>
2.9

> <PUBCHEM_EXACT_MASS>
256.896956

> <PUBCHEM_MOLECULAR_FORMULA>
C6H5Br2N

> <PUBCHEM_MOLECULAR_WEIGHT>
256.874529

> <PUBCHEM_OPENEYE_CAN_SMILES>
C1=CC(=C(C=C1Br)Br)N

> <PUBCHEM_OPENEYE_ISO_SMILES>
[13CH]1=[13CH][13C](=[13C]([13CH]=[13C]1Br)Br)N

> <PUBCHEM_CACTVS_TPSA>
26

> <PUBCHEM_MONOISOTOPIC_WEIGHT>
254.899002

> <PUBCHEM_TOTAL_CHARGE>
0

> <PUBCHEM_HEAVY_ATOM_COUNT>
9

> <PUBCHEM_ATOM_DEF_STEREO_COUNT>
0

> <PUBCHEM_ATOM_UDEF_STEREO_COUNT>
0

> <PUBCHEM_BOND_DEF_STEREO_COUNT>
0

> <PUBCHEM_BOND_UDEF_STEREO_COUNT>
0

> <PUBCHEM_ISOTOPIC_ATOM_COUNT>
6

> <PUBCHEM_COMPONENT_COUNT>
1

> <PUBCHEM_CACTVS_TAUTO_COUNT>
1

> <PUBCHEM_COORDINATE_TYPE>
1
5
255

> <PUBCHEM_BONDANNOTATIONS>
4  5  8
4  6  8
5  7  8
6  8  8
7  9  8
8  9  8

$$$$
