39777910
  -OEChem-06111304242D

 49 50  0     0  0  0  0  0  0999 V2000
    2.0000   -2.0670    0.0000 F   0  0  0  0  0  0  0  0  0  0  0  0
    2.3660   -0.7010    0.0000 F   0  0  0  0  0  0  0  0  0  0  0  0
    3.3660   -2.4330    0.0000 F   0  0  0  0  0  0  0  0  0  0  0  0
   13.2583    2.4330    0.0000 F   0  0  0  0  0  0  0  0  0  0  0  0
   14.2583    1.4330    0.0000 F   0  0  0  0  0  0  0  0  0  0  0  0
   12.2583    1.4330    0.0000 F   0  0  0  0  0  0  0  0  0  0  0  0
   10.6603   -1.0670    0.0000 O   0  0  0  0  0  0  0  0  0  0  0  0
    5.4641   -0.0670    0.0000 O   0  0  0  0  0  0  0  0  0  0  0  0
    8.9282   -0.0670    0.0000 N   0  0  0  0  0  0  0  0  0  0  0  0
    7.1962   -1.0670    0.0000 N   0  0  0  0  0  0  0  0  0  0  0  0
   11.5263    0.4330    0.0000 N   0  0  0  0  0  0  0  0  0  0  0  0
    4.5981   -1.5670    0.0000 N   0  0  0  0  0  0  0  0  0  0  0  0
    8.9282   -1.0670    0.0000 C   0  0  0  0  0  0  0  0  0  0  0  0
    8.0622    0.4330    0.0000 C   0  0  0  0  0  0  0  0  0  0  0  0
    8.0622   -1.5670    0.0000 C   0  0  0  0  0  0  0  0  0  0  0  0
    7.1962   -0.0670    0.0000 C   0  0  0  0  0  0  0  0  0  0  0  0
    9.7942    0.4330    0.0000 C   0  0  0  0  0  0  0  0  0  0  0  0
    6.3301   -1.5670    0.0000 C   0  0  0  0  0  0  0  0  0  0  0  0
   10.6603   -0.0670    0.0000 C   0  0  0  0  0  0  0  0  0  0  0  0
    5.4641   -1.0670    0.0000 C   0  0  0  0  0  0  0  0  0  0  0  0
   12.3923   -0.0670    0.0000 C   0  0  0  0  0  0  0  0  0  0  0  0
    3.7321   -1.0670    0.0000 C   0  0  0  0  0  0  0  0  0  0  0  0
   13.2583    0.4330    0.0000 C   0  0  0  0  0  0  0  0  0  0  0  0
   12.3923   -1.0670    0.0000 C   0  0  0  0  0  0  0  0  0  0  0  0
    2.8660   -1.5670    0.0000 C   0  0  0  0  0  0  0  0  0  0  0  0
   14.1244   -0.0670    0.0000 C   0  0  0  0  0  0  0  0  0  0  0  0
   13.2583    1.4330    0.0000 C   0  0  0  0  0  0  0  0  0  0  0  0
   13.2583   -1.5670    0.0000 C   0  0  0  0  0  0  0  0  0  0  0  0
   14.1244   -1.0670    0.0000 C   0  0  0  0  0  0  0  0  0  0  0  0
    9.1403   -1.6496    0.0000 H   0  0  0  0  0  0  0  0  0  0  0  0
    9.5388   -0.9593    0.0000 H   0  0  0  0  0  0  0  0  0  0  0  0
    8.4607    0.9080    0.0000 H   0  0  0  0  0  0  0  0  0  0  0  0
    7.6637    0.9080    0.0000 H   0  0  0  0  0  0  0  0  0  0  0  0
    7.6637   -2.0419    0.0000 H   0  0  0  0  0  0  0  0  0  0  0  0
    8.4607   -2.0419    0.0000 H   0  0  0  0  0  0  0  0  0  0  0  0
    6.9841    0.5156    0.0000 H   0  0  0  0  0  0  0  0  0  0  0  0
    6.5856   -0.1746    0.0000 H   0  0  0  0  0  0  0  0  0  0  0  0
   10.1928    0.9080    0.0000 H   0  0  0  0  0  0  0  0  0  0  0  0
    9.3957    0.9080    0.0000 H   0  0  0  0  0  0  0  0  0  0  0  0
    5.9316   -2.0419    0.0000 H   0  0  0  0  0  0  0  0  0  0  0  0
    6.7287   -2.0419    0.0000 H   0  0  0  0  0  0  0  0  0  0  0  0
   11.5263    1.0530    0.0000 H   0  0  0  0  0  0  0  0  0  0  0  0
    4.5981   -2.1870    0.0000 H   0  0  0  0  0  0  0  0  0  0  0  0
    4.1306   -0.5920    0.0000 H   0  0  0  0  0  0  0  0  0  0  0  0
    3.3335   -0.5920    0.0000 H   0  0  0  0  0  0  0  0  0  0  0  0
   11.8554   -1.3770    0.0000 H   0  0  0  0  0  0  0  0  0  0  0  0
   14.6613    0.2430    0.0000 H   0  0  0  0  0  0  0  0  0  0  0  0
   13.2583   -2.1870    0.0000 H   0  0  0  0  0  0  0  0  0  0  0  0
   14.6613   -1.3770    0.0000 H   0  0  0  0  0  0  0  0  0  0  0  0
  1 25  1  0  0  0  0
  2 25  1  0  0  0  0
  3 25  1  0  0  0  0
  4 27  1  0  0  0  0
  5 27  1  0  0  0  0
  6 27  1  0  0  0  0
  7 19  2  0  0  0  0
  8 20  2  0  0  0  0
  9 13  1  0  0  0  0
  9 14  1  0  0  0  0
  9 17  1  0  0  0  0
 10 15  1  0  0  0  0
 10 16  1  0  0  0  0
 10 18  1  0  0  0  0
 11 19  1  0  0  0  0
 11 21  1  0  0  0  0
 11 42  1  0  0  0  0
 12 20  1  0  0  0  0
 12 22  1  0  0  0  0
 12 43  1  0  0  0  0
 13 15  1  0  0  0  0
 13 30  1  0  0  0  0
 13 31  1  0  0  0  0
 14 16  1  0  0  0  0
 14 32  1  0  0  0  0
 14 33  1  0  0  0  0
 15 34  1  0  0  0  0
 15 35  1  0  0  0  0
 16 36  1  0  0  0  0
 16 37  1  0  0  0  0
 17 19  1  0  0  0  0
 17 38  1  0  0  0  0
 17 39  1  0  0  0  0
 18 20  1  0  0  0  0
 18 40  1  0  0  0  0
 18 41  1  0  0  0  0
 21 23  1  0  0  0  0
 21 24  2  0  0  0  0
 22 25  1  0  0  0  0
 22 44  1  0  0  0  0
 22 45  1  0  0  0  0
 23 26  2  0  0  0  0
 23 27  1  0  0  0  0
 24 28  1  0  0  0  0
 24 46  1  0  0  0  0
 26 29  1  0  0  0  0
 26 47  1  0  0  0  0
 28 29  2  0  0  0  0
 28 48  1  0  0  0  0
 29 49  1  0  0  0  0
M  END
> <PUBCHEM_COMPOUND_CID>
39777910

> <PUBCHEM_COMPOUND_CANONICALIZED>
1

> <PUBCHEM_CACTVS_COMPLEXITY>
561

> <PUBCHEM_CACTVS_HBOND_ACCEPTOR>
10

> <PUBCHEM_CACTVS_HBOND_DONOR>
2

> <PUBCHEM_CACTVS_ROTATABLE_BOND>
6

> <PUBCHEM_CACTVS_SUBSKEYS>
AAADceB7scAAAAAAAAAAAAAAAAAAAAAAAAA8QAAAAAAAAAABAAAAHwAQAAAADAjBmBQwwIPAAACIAiVSUACCAAAhAgAIiICIZIgIYCLAkbGUIAhglgDIyAcQgAAOAAAAAAACAAAAAAAAAAQAAAAAAAAAAA==

> <PUBCHEM_IUPAC_OPENEYE_NAME>
2-[4-[2-oxo-2-[2-(trifluoromethyl)anilino]ethyl]piperazin-1-yl]-N-(2,2,2-trifluoroethyl)acetamide

> <PUBCHEM_IUPAC_CAS_NAME>
2-[4-[2-oxo-2-[2-(trifluoromethyl)anilino]ethyl]-1-piperazinyl]-N-(2,2,2-trifluoroethyl)acetamide

> <PUBCHEM_IUPAC_NAME>
2-[4-[2-oxo-2-[2-(trifluoromethyl)anilino]ethyl]piperazin-1-yl]-N-(2,2,2-trifluoroethyl)acetamide

> <PUBCHEM_IUPAC_SYSTEMATIC_NAME>
2-[4-[2-oxidanylidene-2-[[2-(trifluoromethyl)phenyl]amino]ethyl]piperazin-1-yl]-N-[2,2,2-tris(fluoranyl)ethyl]ethanamide

> <PUBCHEM_IUPAC_TRADITIONAL_NAME>
2-[4-[2-keto-2-[2-(trifluoromethyl)anilino]ethyl]piperazino]-N-(2,2,2-trifluoroethyl)acetamide

> <PUBCHEM_IUPAC_INCHI>
InChI=1S/C17H20F6N4O2/c18-16(19,20)11-24-14(28)9-26-5-7-27(8-6-26)10-15(29)25-13-4-2-1-3-12(13)17(21,22)23/h1-4H,5-11H2,(H,24,28)(H,25,29)

> <PUBCHEM_IUPAC_INCHIKEY>
GYPJOUMJBVJWKB-UHFFFAOYSA-N

> <PUBCHEM_XLOGP3>
1.4

> <PUBCHEM_EXACT_MASS>
426.149045

> <PUBCHEM_MOLECULAR_FORMULA>
C17H20F6N4O2

> <PUBCHEM_MOLECULAR_WEIGHT>
426.356719

> <PUBCHEM_OPENEYE_CAN_SMILES>
C1CN(CCN1CC(=O)NCC(F)(F)F)CC(=O)NC2=CC=CC=C2C(F)(F)F

> <PUBCHEM_OPENEYE_ISO_SMILES>
C1CN(CCN1CC(=O)NCC(F)(F)F)CC(=O)NC2=CC=CC=C2C(F)(F)F

> <PUBCHEM_CACTVS_TPSA>
64.7

> <PUBCHEM_MONOISOTOPIC_WEIGHT>
426.149045

> <PUBCHEM_TOTAL_CHARGE>
0

> <PUBCHEM_HEAVY_ATOM_COUNT>
29

> <PUBCHEM_ATOM_DEF_STEREO_COUNT>
0

> <PUBCHEM_ATOM_UDEF_STEREO_COUNT>
0

> <PUBCHEM_BOND_DEF_STEREO_COUNT>
0

> <PUBCHEM_BOND_UDEF_STEREO_COUNT>
0

> <PUBCHEM_ISOTOPIC_ATOM_COUNT>
0

> <PUBCHEM_COMPONENT_COUNT>
1

> <PUBCHEM_CACTVS_TAUTO_COUNT>
4

> <PUBCHEM_COORDINATE_TYPE>
1
5
255

> <PUBCHEM_BONDANNOTATIONS>
21  23  8
21  24  8
23  26  8
24  28  8
26  29  8
28  29  8

$$$$
