44825199
  -OEChem-06011308402D

 54 57  0     0  0  0  0  0  0999 V2000
   11.2536   -2.7637    0.0000 S   0  0  0  0  0  0  0  0  0  0  0  0
    5.1350    2.7704    0.0000 O   0  0  0  0  0  0  0  0  0  0  0  0
   12.9856   -2.7704    0.0000 O   0  0  0  0  0  0  0  0  0  0  0  0
    2.5369    1.2704    0.0000 O   0  0  0  0  0  0  0  0  0  0  0  0
    3.4030    2.7704    0.0000 O   0  0  0  0  0  0  0  0  0  0  0  0
    8.6651   -0.2537    0.0000 N   0  0  0  0  0  0  0  0  0  0  0  0
   10.3933   -1.2604    0.0000 N   0  0  0  0  0  0  0  0  0  0  0  0
    6.8950   -0.2642    0.0000 N   0  0  0  0  0  0  0  0  0  0  0  0
    5.1350   -0.2296    0.0000 N   0  0  0  0  0  0  0  0  0  0  0  0
    7.8010    1.2912    0.0000 N   0  0  0  0  0  0  0  0  0  0  0  0
   12.1254   -1.2671    0.0000 N   0  0  0  0  0  0  0  0  0  0  0  0
   15.5933   -0.2804    0.0000 N   0  0  0  0  0  0  0  0  0  0  0  0
    8.6613   -1.2537    0.0000 C   0  0  0  0  0  0  0  0  0  0  0  0
    9.5331    0.2429    0.0000 C   0  0  0  0  0  0  0  0  0  0  0  0
    9.5254   -1.7571    0.0000 C   0  0  0  0  0  0  0  0  0  0  0  0
   10.3972   -0.2604    0.0000 C   0  0  0  0  0  0  0  0  0  0  0  0
    7.8010    0.2496    0.0000 C   0  0  0  0  0  0  0  0  0  0  0  0
   11.2574   -1.7637    0.0000 C   0  0  0  0  0  0  0  0  0  0  0  0
    6.0010    0.2704    0.0000 C   0  0  0  0  0  0  0  0  0  0  0  0
    6.0010    1.2704    0.0000 C   0  0  0  0  0  0  0  0  0  0  0  0
    6.8950    1.8051    0.0000 C   0  0  0  0  0  0  0  0  0  0  0  0
    5.1350   -1.2296    0.0000 C   0  0  0  0  0  0  0  0  0  0  0  0
    5.1350    1.7704    0.0000 C   0  0  0  0  0  0  0  0  0  0  0  0
    4.2690    0.2704    0.0000 C   0  0  0  0  0  0  0  0  0  0  0  0
    4.2690    1.2704    0.0000 C   0  0  0  0  0  0  0  0  0  0  0  0
    4.2690   -1.7296    0.0000 C   0  0  0  0  0  0  0  0  0  0  0  0
   12.9895   -1.7704    0.0000 C   0  0  0  0  0  0  0  0  0  0  0  0
    3.4030    1.7704    0.0000 C   0  0  0  0  0  0  0  0  0  0  0  0
   13.8574   -1.2738    0.0000 C   0  0  0  0  0  0  0  0  0  0  0  0
   13.8613   -0.2738    0.0000 C   0  0  0  0  0  0  0  0  0  0  0  0
   14.7215   -1.7771    0.0000 C   0  0  0  0  0  0  0  0  0  0  0  0
   14.7292    0.2229    0.0000 C   0  0  0  0  0  0  0  0  0  0  0  0
   15.5894   -1.2804    0.0000 C   0  0  0  0  0  0  0  0  0  0  0  0
    9.9334    0.7163    0.0000 H   0  0  0  0  0  0  0  0  0  0  0  0
    9.1364    0.7194    0.0000 H   0  0  0  0  0  0  0  0  0  0  0  0
    8.0511   -1.1437    0.0000 H   0  0  0  0  0  0  0  0  0  0  0  0
    8.4470   -1.8355    0.0000 H   0  0  0  0  0  0  0  0  0  0  0  0
   11.0073   -0.3704    0.0000 H   0  0  0  0  0  0  0  0  0  0  0  0
   10.6115    0.3214    0.0000 H   0  0  0  0  0  0  0  0  0  0  0  0
    9.1250   -2.2305    0.0000 H   0  0  0  0  0  0  0  0  0  0  0  0
    9.9221   -2.2336    0.0000 H   0  0  0  0  0  0  0  0  0  0  0  0
    6.8878    2.4250    0.0000 H   0  0  0  0  0  0  0  0  0  0  0  0
    5.3471   -1.8122    0.0000 H   0  0  0  0  0  0  0  0  0  0  0  0
    5.7456   -1.1219    0.0000 H   0  0  0  0  0  0  0  0  0  0  0  0
   12.1277   -0.6471    0.0000 H   0  0  0  0  0  0  0  0  0  0  0  0
    3.7320   -0.0396    0.0000 H   0  0  0  0  0  0  0  0  0  0  0  0
    3.9590   -1.1926    0.0000 H   0  0  0  0  0  0  0  0  0  0  0  0
    3.7320   -2.0396    0.0000 H   0  0  0  0  0  0  0  0  0  0  0  0
    4.5790   -2.2665    0.0000 H   0  0  0  0  0  0  0  0  0  0  0  0
   13.3255    0.0383    0.0000 H   0  0  0  0  0  0  0  0  0  0  0  0
   14.7191   -2.3971    0.0000 H   0  0  0  0  0  0  0  0  0  0  0  0
    2.0000    1.5804    0.0000 H   0  0  0  0  0  0  0  0  0  0  0  0
   14.7316    0.8429    0.0000 H   0  0  0  0  0  0  0  0  0  0  0  0
   16.1252   -1.5925    0.0000 H   0  0  0  0  0  0  0  0  0  0  0  0
  1 18  2  0  0  0  0
  2 23  2  0  0  0  0
  3 27  2  0  0  0  0
  4 28  1  0  0  0  0
  4 52  1  0  0  0  0
  5 28  2  0  0  0  0
  6 13  1  0  0  0  0
  6 14  1  0  0  0  0
  6 17  1  0  0  0  0
  7 15  1  0  0  0  0
  7 16  1  0  0  0  0
  7 18  1  0  0  0  0
  8 17  1  0  0  0  0
  8 19  2  0  0  0  0
  9 19  1  0  0  0  0
  9 22  1  0  0  0  0
  9 24  1  0  0  0  0
 10 17  2  0  0  0  0
 10 21  1  0  0  0  0
 11 18  1  0  0  0  0
 11 27  1  0  0  0  0
 11 45  1  0  0  0  0
 12 32  2  0  0  0  0
 12 33  1  0  0  0  0
 13 15  1  0  0  0  0
 13 36  1  0  0  0  0
 13 37  1  0  0  0  0
 14 16  1  0  0  0  0
 14 34  1  0  0  0  0
 14 35  1  0  0  0  0
 15 40  1  0  0  0  0
 15 41  1  0  0  0  0
 16 38  1  0  0  0  0
 16 39  1  0  0  0  0
 19 20  1  0  0  0  0
 20 21  2  0  0  0  0
 20 23  1  0  0  0  0
 21 42  1  0  0  0  0
 22 26  1  0  0  0  0
 22 43  1  0  0  0  0
 22 44  1  0  0  0  0
 23 25  1  0  0  0  0
 24 25  2  0  0  0  0
 24 46  1  0  0  0  0
 25 28  1  0  0  0  0
 26 47  1  0  0  0  0
 26 48  1  0  0  0  0
 26 49  1  0  0  0  0
 27 29  1  0  0  0  0
 29 30  2  0  0  0  0
 29 31  1  0  0  0  0
 30 32  1  0  0  0  0
 30 50  1  0  0  0  0
 31 33  2  0  0  0  0
 31 51  1  0  0  0  0
 32 53  1  0  0  0  0
 33 54  1  0  0  0  0
M  END
> <PUBCHEM_COMPOUND_CID>
44825199

> <PUBCHEM_COMPOUND_CANONICALIZED>
1

> <PUBCHEM_CACTVS_COMPLEXITY>
823

> <PUBCHEM_CACTVS_HBOND_ACCEPTOR>
10

> <PUBCHEM_CACTVS_HBOND_DONOR>
2

> <PUBCHEM_CACTVS_ROTATABLE_BOND>
4

> <PUBCHEM_CACTVS_SUBSKEYS>
AAADceB7uABAAAAAAAAAAAAAAAAAAAAAAAAsWLEAAAAAAACB4AAAHgQQCAAADATBmgQ/uJfIEgCsArP3fACCgCk1AqkJ2CE4ZNiIbP7I3dGUZYhsoQLI2eacEQIOAAAAAAAAAAAAAAAAAAAAAAAAAAAAAA==

> <PUBCHEM_IUPAC_OPENEYE_NAME>
8-ethyl-5-oxo-2-[4-(pyridine-4-carbonylcarbamothioyl)piperazin-1-yl]pyrido[2,3-d]pyrimidine-6-carboxylic acid

> <PUBCHEM_IUPAC_CAS_NAME>
8-ethyl-5-oxo-2-[4-[[[oxo(pyridin-4-yl)methyl]amino]-sulfanylidenemethyl]-1-piperazinyl]-6-pyrido[2,3-d]pyrimidinecarboxylic acid

> <PUBCHEM_IUPAC_NAME>
8-ethyl-5-oxo-2-[4-(pyridine-4-carbonylcarbamothioyl)piperazin-1-yl]pyrido[2,3-d]pyrimidine-6-carboxylic acid

> <PUBCHEM_IUPAC_SYSTEMATIC_NAME>
8-ethyl-5-oxidanylidene-2-[4-(pyridin-4-ylcarbonylcarbamothioyl)piperazin-1-yl]pyrido[2,3-d]pyrimidine-6-carboxylic acid

> <PUBCHEM_IUPAC_TRADITIONAL_NAME>
8-ethyl-2-[4-(isonicotinoylthiocarbamoyl)piperazino]-5-keto-pyrido[2,3-d]pyrimidine-6-carboxylic acid

> <PUBCHEM_IUPAC_INCHI>
InChI=1S/C21H21N7O4S/c1-2-26-12-15(19(31)32)16(29)14-11-23-20(24-17(14)26)27-7-9-28(10-8-27)21(33)25-18(30)13-3-5-22-6-4-13/h3-6,11-12H,2,7-10H2,1H3,(H,31,32)(H,25,30,33)

> <PUBCHEM_IUPAC_INCHIKEY>
IXOZBTVEBCXRDV-UHFFFAOYSA-N

> <PUBCHEM_XLOGP3>
0.9

> <PUBCHEM_EXACT_MASS>
467.137573

> <PUBCHEM_MOLECULAR_FORMULA>
C21H21N7O4S

> <PUBCHEM_MOLECULAR_WEIGHT>
467.50094

> <PUBCHEM_OPENEYE_CAN_SMILES>
CCN1C=C(C(=O)C2=CN=C(N=C21)N3CCN(CC3)C(=S)NC(=O)C4=CC=NC=C4)C(=O)O

> <PUBCHEM_OPENEYE_ISO_SMILES>
CCN1C=C(C(=O)C2=CN=C(N=C21)N3CCN(CC3)C(=S)NC(=O)C4=CC=NC=C4)C(=O)O

> <PUBCHEM_CACTVS_TPSA>
164

> <PUBCHEM_MONOISOTOPIC_WEIGHT>
467.137573

> <PUBCHEM_TOTAL_CHARGE>
0

> <PUBCHEM_HEAVY_ATOM_COUNT>
33

> <PUBCHEM_ATOM_DEF_STEREO_COUNT>
0

> <PUBCHEM_ATOM_UDEF_STEREO_COUNT>
0

> <PUBCHEM_BOND_DEF_STEREO_COUNT>
0

> <PUBCHEM_BOND_UDEF_STEREO_COUNT>
0

> <PUBCHEM_ISOTOPIC_ATOM_COUNT>
0

> <PUBCHEM_COMPONENT_COUNT>
1

> <PUBCHEM_CACTVS_TAUTO_COUNT>
3

> <PUBCHEM_COORDINATE_TYPE>
1
5
255

> <PUBCHEM_BONDANNOTATIONS>
10  17  8
10  21  8
12  32  8
12  33  8
19  20  8
20  21  8
20  23  8
23  25  8
24  25  8
29  30  8
29  31  8
30  32  8
31  33  8
8  17  8
8  19  8
9  19  8
9  24  8

$$$$
