31781377
  -OEChem-12041211432D

 41 42  0     0  0  0  0  0  0999 V2000
    8.0622    2.5000    0.0000 S   0  0  0  0  0  0  0  0  0  0  0  0
    6.3301   -0.5000    0.0000 S   0  0  0  0  0  0  0  0  0  0  0  0
    2.0000   -3.0000    0.0000 F   0  0  0  0  0  0  0  0  0  0  0  0
    2.3660   -1.6340    0.0000 F   0  0  0  0  0  0  0  0  0  0  0  0
    3.3660   -3.3660    0.0000 F   0  0  0  0  0  0  0  0  0  0  0  0
    9.0622    2.5000    0.0000 O   0  0  0  0  0  0  0  0  0  0  0  0
    7.0622    2.5000    0.0000 O   0  0  0  0  0  0  0  0  0  0  0  0
    6.8301   -1.3660    0.0000 O   0  0  0  0  0  0  0  0  0  0  0  0
    5.8301    0.3660    0.0000 O   0  0  0  0  0  0  0  0  0  0  0  0
    3.7320   -2.0000    0.0000 O   0  0  0  0  0  0  0  0  0  0  0  0
    8.0622    3.5000    0.0000 N   0  0  0  0  0  0  0  0  0  0  0  0
    5.4641   -1.0000    0.0000 N   0  5  0  0  0  0  0  0  0  0  0  0
    8.0622    1.5000    0.0000 C   0  0  0  0  0  0  0  0  0  0  0  0
    7.1962    0.0000    0.0000 C   0  0  0  0  0  0  0  0  0  0  0  0
    7.1962    1.0000    0.0000 C   0  0  0  0  0  0  0  0  0  0  0  0
    8.9282    1.0000    0.0000 C   0  0  0  0  0  0  0  0  0  0  0  0
    8.0622   -0.5000    0.0000 C   0  0  0  0  0  0  0  0  0  0  0  0
    8.9282    0.0000    0.0000 C   0  0  0  0  0  0  0  0  0  0  0  0
    8.9282    4.0000    0.0000 C   0  0  0  0  0  0  0  0  0  0  0  0
    7.1962    4.0000    0.0000 C   0  0  0  0  0  0  0  0  0  0  0  0
    5.4641   -2.0000    0.0000 C   0  0  0  0  0  0  0  0  0  0  0  0
    4.5981   -2.5000    0.0000 C   0  0  0  0  0  0  0  0  0  0  0  0
    6.3301   -2.5000    0.0000 C   0  0  0  0  0  0  0  0  0  0  0  0
    4.5981   -3.5000    0.0000 C   0  0  0  0  0  0  0  0  0  0  0  0
    6.3301   -3.5000    0.0000 C   0  0  0  0  0  0  0  0  0  0  0  0
    5.4641   -4.0000    0.0000 C   0  0  0  0  0  0  0  0  0  0  0  0
    2.8660   -2.5000    0.0000 C   0  0  0  0  0  0  0  0  0  0  0  0
    6.6592    1.3100    0.0000 H   0  0  0  0  0  0  0  0  0  0  0  0
    9.4651    1.3100    0.0000 H   0  0  0  0  0  0  0  0  0  0  0  0
    8.0622   -1.1200    0.0000 H   0  0  0  0  0  0  0  0  0  0  0  0
    9.4651   -0.3100    0.0000 H   0  0  0  0  0  0  0  0  0  0  0  0
    7.5062    4.5369    0.0000 H   0  0  0  0  0  0  0  0  0  0  0  0
    6.6592    4.3100    0.0000 H   0  0  0  0  0  0  0  0  0  0  0  0
    6.8862    3.4631    0.0000 H   0  0  0  0  0  0  0  0  0  0  0  0
    9.2382    3.4631    0.0000 H   0  0  0  0  0  0  0  0  0  0  0  0
    9.4651    4.3100    0.0000 H   0  0  0  0  0  0  0  0  0  0  0  0
    8.6182    4.5369    0.0000 H   0  0  0  0  0  0  0  0  0  0  0  0
    6.8671   -2.1900    0.0000 H   0  0  0  0  0  0  0  0  0  0  0  0
    4.0611   -3.8100    0.0000 H   0  0  0  0  0  0  0  0  0  0  0  0
    6.8671   -3.8100    0.0000 H   0  0  0  0  0  0  0  0  0  0  0  0
    5.4641   -4.6200    0.0000 H   0  0  0  0  0  0  0  0  0  0  0  0
  1  6  2  0  0  0  0
  1  7  2  0  0  0  0
  1 11  1  0  0  0  0
  1 13  1  0  0  0  0
  2  8  2  0  0  0  0
  2  9  2  0  0  0  0
  2 12  1  0  0  0  0
  2 14  1  0  0  0  0
  3 27  1  0  0  0  0
  4 27  1  0  0  0  0
  5 27  1  0  0  0  0
 10 22  1  0  0  0  0
 10 27  1  0  0  0  0
 11 19  1  0  0  0  0
 11 20  1  0  0  0  0
 12 21  1  0  0  0  0
 13 15  1  0  0  0  0
 13 16  2  0  0  0  0
 14 15  2  0  0  0  0
 14 17  1  0  0  0  0
 15 28  1  0  0  0  0
 16 18  1  0  0  0  0
 16 29  1  0  0  0  0
 17 18  2  0  0  0  0
 17 30  1  0  0  0  0
 18 31  1  0  0  0  0
 19 35  1  0  0  0  0
 19 36  1  0  0  0  0
 19 37  1  0  0  0  0
 20 32  1  0  0  0  0
 20 33  1  0  0  0  0
 20 34  1  0  0  0  0
 21 22  1  0  0  0  0
 21 23  2  0  0  0  0
 22 24  2  0  0  0  0
 23 25  1  0  0  0  0
 23 38  1  0  0  0  0
 24 26  1  0  0  0  0
 24 39  1  0  0  0  0
 25 26  2  0  0  0  0
 25 40  1  0  0  0  0
 26 41  1  0  0  0  0
M  CHG  1  12  -1
M  END
> <PUBCHEM_COMPOUND_CID>
31781377

> <PUBCHEM_COMPOUND_CANONICALIZED>
1

> <PUBCHEM_CACTVS_COMPLEXITY>
698

> <PUBCHEM_CACTVS_HBOND_ACCEPTOR>
10

> <PUBCHEM_CACTVS_HBOND_DONOR>
0

> <PUBCHEM_CACTVS_ROTATABLE_BOND>
6

> <PUBCHEM_CACTVS_SUBSKEYS>
AAADccBzOYBgAAAAAAAAAAAAAAAAAAAAAAAwYAAAAAAAAAABQAAAHwQAQAAACAyB0BQyx4IABAKAACRCQHDCCBAgIgAIiBgPbIgOJiKEsZuBMCBkwBEI6AeQQAAAAAAAAEAAEAAAAAAAgAAgAAAAAAAAAA==

> <PUBCHEM_IUPAC_OPENEYE_NAME>
[3-(dimethylsulfamoyl)phenyl]sulfonyl-[2-(trifluoromethoxy)phenyl]azanide

> <PUBCHEM_IUPAC_CAS_NAME>
[3-(dimethylsulfamoyl)phenyl]sulfonyl-[2-(trifluoromethoxy)phenyl]azanide

> <PUBCHEM_IUPAC_NAME>
[3-(dimethylsulfamoyl)phenyl]sulfonyl-[2-(trifluoromethoxy)phenyl]azanide

> <PUBCHEM_IUPAC_SYSTEMATIC_NAME>
[3-(dimethylsulfamoyl)phenyl]sulfonyl-[2-(trifluoromethyloxy)phenyl]azanide

> <PUBCHEM_IUPAC_TRADITIONAL_NAME>
[3-(dimethylsulfamoyl)phenyl]sulfonyl-[2-(trifluoromethoxy)phenyl]azanide

> <PUBCHEM_IUPAC_INCHI>
InChI=1S/C15H14F3N2O5S2/c1-20(2)27(23,24)12-7-5-6-11(10-12)26(21,22)19-13-8-3-4-9-14(13)25-15(16,17)18/h3-10H,1-2H3/q-1

> <PUBCHEM_IUPAC_INCHIKEY>
LEGYHGFYNONLRW-UHFFFAOYSA-N

> <PUBCHEM_XLOGP3>
2.6

> <PUBCHEM_EXACT_MASS>
423.029623

> <PUBCHEM_MOLECULAR_FORMULA>
C15H14F3N2O5S2-

> <PUBCHEM_MOLECULAR_WEIGHT>
423.40727

> <PUBCHEM_OPENEYE_CAN_SMILES>
CN(C)S(=O)(=O)C1=CC=CC(=C1)S(=O)(=O)[N-]C2=CC=CC=C2OC(F)(F)F

> <PUBCHEM_OPENEYE_ISO_SMILES>
CN(C)S(=O)(=O)C1=CC=CC(=C1)S(=O)(=O)[N-]C2=CC=CC=C2OC(F)(F)F

> <PUBCHEM_CACTVS_TPSA>
98.5

> <PUBCHEM_MONOISOTOPIC_WEIGHT>
423.029623

> <PUBCHEM_TOTAL_CHARGE>
-1

> <PUBCHEM_HEAVY_ATOM_COUNT>
27

> <PUBCHEM_ATOM_DEF_STEREO_COUNT>
0

> <PUBCHEM_ATOM_UDEF_STEREO_COUNT>
0

> <PUBCHEM_BOND_DEF_STEREO_COUNT>
0

> <PUBCHEM_BOND_UDEF_STEREO_COUNT>
0

> <PUBCHEM_ISOTOPIC_ATOM_COUNT>
0

> <PUBCHEM_COMPONENT_COUNT>
1

> <PUBCHEM_CACTVS_TAUTO_COUNT>
1

> <PUBCHEM_COORDINATE_TYPE>
1
5
255

> <PUBCHEM_BONDANNOTATIONS>
13  15  8
13  16  8
14  15  8
14  17  8
16  18  8
17  18  8
21  22  8
21  23  8
22  24  8
23  25  8
24  26  8
25  26  8

$$$$
31781378
  -OEChem-12041211432D

 42 43  0     0  0  0  0  0  0999 V2000
    3.7320   -2.2500    0.0000 S   0  0  0  0  0  0  0  0  0  0  0  0
    5.4641    0.7500    0.0000 S   0  0  0  0  0  0  0  0  0  0  0  0
    8.9282   -0.2500    0.0000 F   0  0  0  0  0  0  0  0  0  0  0  0
    8.5622    1.1160    0.0000 F   0  0  0  0  0  0  0  0  0  0  0  0
    7.5622   -0.6160    0.0000 F   0  0  0  0  0  0  0  0  0  0  0  0
    4.2320   -3.1160    0.0000 O   0  0  0  0  0  0  0  0  0  0  0  0
    3.2320   -1.3840    0.0000 O   0  0  0  0  0  0  0  0  0  0  0  0
    6.4641    0.7500    0.0000 O   0  0  0  0  0  0  0  0  0  0  0  0
    4.4641    0.7500    0.0000 O   0  0  0  0  0  0  0  0  0  0  0  0
    7.1962    0.7500    0.0000 O   0  0  0  0  0  0  0  0  0  0  0  0
    2.8660   -2.7500    0.0000 N   0  0  0  0  0  0  0  0  0  0  0  0
    5.4641    1.7500    0.0000 N   0  0  0  0  0  0  0  0  0  0  0  0
    4.5981   -1.7500    0.0000 C   0  0  0  0  0  0  0  0  0  0  0  0
    5.4641   -0.2500    0.0000 C   0  0  0  0  0  0  0  0  0  0  0  0
    4.5981   -0.7500    0.0000 C   0  0  0  0  0  0  0  0  0  0  0  0
    5.4641   -2.2500    0.0000 C   0  0  0  0  0  0  0  0  0  0  0  0
    6.3301   -0.7500    0.0000 C   0  0  0  0  0  0  0  0  0  0  0  0
    6.3301   -1.7500    0.0000 C   0  0  0  0  0  0  0  0  0  0  0  0
    6.3301    2.2500    0.0000 C   0  0  0  0  0  0  0  0  0  0  0  0
    2.8660   -3.7500    0.0000 C   0  0  0  0  0  0  0  0  0  0  0  0
    2.0000   -2.2500    0.0000 C   0  0  0  0  0  0  0  0  0  0  0  0
    7.1962    1.7500    0.0000 C   0  0  0  0  0  0  0  0  0  0  0  0
    6.3301    3.2500    0.0000 C   0  0  0  0  0  0  0  0  0  0  0  0
    8.0622    2.2500    0.0000 C   0  0  0  0  0  0  0  0  0  0  0  0
    7.1962    3.7500    0.0000 C   0  0  0  0  0  0  0  0  0  0  0  0
    8.0622    3.2500    0.0000 C   0  0  0  0  0  0  0  0  0  0  0  0
    8.0622    0.2500    0.0000 C   0  0  0  0  0  0  0  0  0  0  0  0
    4.0611   -0.4400    0.0000 H   0  0  0  0  0  0  0  0  0  0  0  0
    5.4641   -2.8700    0.0000 H   0  0  0  0  0  0  0  0  0  0  0  0
    6.8671   -0.4400    0.0000 H   0  0  0  0  0  0  0  0  0  0  0  0
    4.9272    2.0600    0.0000 H   0  0  0  0  0  0  0  0  0  0  0  0
    6.8671   -2.0600    0.0000 H   0  0  0  0  0  0  0  0  0  0  0  0
    2.3100   -1.7131    0.0000 H   0  0  0  0  0  0  0  0  0  0  0  0
    1.4631   -1.9400    0.0000 H   0  0  0  0  0  0  0  0  0  0  0  0
    2.2460   -3.7500    0.0000 H   0  0  0  0  0  0  0  0  0  0  0  0
    2.8660   -4.3700    0.0000 H   0  0  0  0  0  0  0  0  0  0  0  0
    3.4860   -3.7500    0.0000 H   0  0  0  0  0  0  0  0  0  0  0  0
    1.6900   -2.7869    0.0000 H   0  0  0  0  0  0  0  0  0  0  0  0
    5.7932    3.5600    0.0000 H   0  0  0  0  0  0  0  0  0  0  0  0
    8.5991    1.9400    0.0000 H   0  0  0  0  0  0  0  0  0  0  0  0
    7.1962    4.3700    0.0000 H   0  0  0  0  0  0  0  0  0  0  0  0
    8.5991    3.5600    0.0000 H   0  0  0  0  0  0  0  0  0  0  0  0
  1  6  2  0  0  0  0
  1  7  2  0  0  0  0
  1 11  1  0  0  0  0
  1 13  1  0  0  0  0
  2  8  2  0  0  0  0
  2  9  2  0  0  0  0
  2 12  1  0  0  0  0
  2 14  1  0  0  0  0
  3 27  1  0  0  0  0
  4 27  1  0  0  0  0
  5 27  1  0  0  0  0
 10 22  1  0  0  0  0
 10 27  1  0  0  0  0
 11 20  1  0  0  0  0
 11 21  1  0  0  0  0
 12 19  1  0  0  0  0
 12 31  1  0  0  0  0
 13 15  1  0  0  0  0
 13 16  2  0  0  0  0
 14 15  2  0  0  0  0
 14 17  1  0  0  0  0
 15 28  1  0  0  0  0
 16 18  1  0  0  0  0
 16 29  1  0  0  0  0
 17 18  2  0  0  0  0
 17 30  1  0  0  0  0
 18 32  1  0  0  0  0
 19 22  1  0  0  0  0
 19 23  2  0  0  0  0
 20 35  1  0  0  0  0
 20 36  1  0  0  0  0
 20 37  1  0  0  0  0
 21 33  1  0  0  0  0
 21 34  1  0  0  0  0
 21 38  1  0  0  0  0
 22 24  2  0  0  0  0
 23 25  1  0  0  0  0
 23 39  1  0  0  0  0
 24 26  1  0  0  0  0
 24 40  1  0  0  0  0
 25 26  2  0  0  0  0
 25 41  1  0  0  0  0
 26 42  1  0  0  0  0
M  END
> <PUBCHEM_COMPOUND_CID>
31781378

> <PUBCHEM_COMPOUND_CANONICALIZED>
1

> <PUBCHEM_CACTVS_COMPLEXITY>
698

> <PUBCHEM_CACTVS_HBOND_ACCEPTOR>
10

> <PUBCHEM_CACTVS_HBOND_DONOR>
1

> <PUBCHEM_CACTVS_ROTATABLE_BOND>
6

> <PUBCHEM_CACTVS_SUBSKEYS>
AAADccBzOYBgAAAAAAAAAAAAAAAAAAAAAAAwYAAAAAAAAAABQAAAHwQQQAAACAyB0BQyx4JABAKAACRCQHDCCBAgIgAIiBgPbIgOJiKEsZuBMCBk0BEI6AeQQAAAAAAAAEAAEAAAAAAAgAAgAAAAAAAAAA==

> <PUBCHEM_IUPAC_OPENEYE_NAME>
N3,N3-dimethyl-N1-[2-(trifluoromethoxy)phenyl]benzene-1,3-disulfonamide

> <PUBCHEM_IUPAC_CAS_NAME>
N3,N3-dimethyl-N1-[2-(trifluoromethoxy)phenyl]benzene-1,3-disulfonamide

> <PUBCHEM_IUPAC_NAME>
3-N,3-N-dimethyl-1-N-[2-(trifluoromethoxy)phenyl]benzene-1,3-disulfonamide

> <PUBCHEM_IUPAC_SYSTEMATIC_NAME>
N3,N3-dimethyl-N1-[2-(trifluoromethyloxy)phenyl]benzene-1,3-disulfonamide

> <PUBCHEM_IUPAC_TRADITIONAL_NAME>
N',N'-dimethyl-N-[2-(trifluoromethoxy)phenyl]benzene-1,3-disulfonamide

> <PUBCHEM_IUPAC_INCHI>
InChI=1S/C15H15F3N2O5S2/c1-20(2)27(23,24)12-7-5-6-11(10-12)26(21,22)19-13-8-3-4-9-14(13)25-15(16,17)18/h3-10,19H,1-2H3

> <PUBCHEM_IUPAC_INCHIKEY>
JYJGELJWDYAFKH-UHFFFAOYSA-N

> <PUBCHEM_XLOGP3>
2.6

> <PUBCHEM_EXACT_MASS>
424.037448

> <PUBCHEM_MOLECULAR_FORMULA>
C15H15F3N2O5S2

> <PUBCHEM_MOLECULAR_WEIGHT>
424.41521

> <PUBCHEM_OPENEYE_CAN_SMILES>
CN(C)S(=O)(=O)C1=CC=CC(=C1)S(=O)(=O)NC2=CC=CC=C2OC(F)(F)F

> <PUBCHEM_OPENEYE_ISO_SMILES>
CN(C)S(=O)(=O)C1=CC=CC(=C1)S(=O)(=O)NC2=CC=CC=C2OC(F)(F)F

> <PUBCHEM_CACTVS_TPSA>
110

> <PUBCHEM_MONOISOTOPIC_WEIGHT>
424.037448

> <PUBCHEM_TOTAL_CHARGE>
0

> <PUBCHEM_HEAVY_ATOM_COUNT>
27

> <PUBCHEM_ATOM_DEF_STEREO_COUNT>
0

> <PUBCHEM_ATOM_UDEF_STEREO_COUNT>
0

> <PUBCHEM_BOND_DEF_STEREO_COUNT>
0

> <PUBCHEM_BOND_UDEF_STEREO_COUNT>
0

> <PUBCHEM_ISOTOPIC_ATOM_COUNT>
0

> <PUBCHEM_COMPONENT_COUNT>
1

> <PUBCHEM_CACTVS_TAUTO_COUNT>
1

> <PUBCHEM_COORDINATE_TYPE>
1
5
255

> <PUBCHEM_BONDANNOTATIONS>
13  15  8
13  16  8
14  15  8
14  17  8
16  18  8
17  18  8
19  22  8
19  23  8
22  24  8
23  25  8
24  26  8
25  26  8

$$$$
