37818602
  -OEChem-12041211522D

 13 13  0     0  0  0  0  0  0999 V2000
    4.0339   -1.4537    0.0000 I   0  0  0  0  0  0  0  0  0  0  0  0
    2.8090   -0.0852    0.0000 O   0  0  0  0  0  0  0  0  0  0  0  0
    3.6180    0.5026    0.0000 C   0  0  0  0  0  0  0  0  0  0  0  0
    3.3090    1.4537    0.0000 C   0  0  0  0  0  0  0  0  0  0  0  0
    2.3090    1.4537    0.0000 C   0  0  0  0  0  0  0  0  0  0  0  0
    2.0000    0.5026    0.0000 C   0  0  0  0  0  0  0  0  0  0  0  0
    4.5691    0.1936    0.0000 C   0  0  0  0  0  0  0  0  0  0  0  0
    4.7770   -0.7845    0.0000 C   0  0  0  0  0  0  0  0  0  0  0  0
    3.6734    1.9553    0.0000 H   0  0  0  0  0  0  0  0  0  0  0  0
    1.9446    1.9553    0.0000 H   0  0  0  0  0  0  0  0  0  0  0  0
    5.0298    0.6085    0.0000 H   0  0  0  0  0  0  0  0  0  0  0  0
    1.4103    0.3110    0.0000 H   0  0  0  0  0  0  0  0  0  0  0  0
    5.3667   -0.9761    0.0000 H   0  0  0  0  0  0  0  0  0  0  0  0
  1  8  1  0  0  0  0
  2  3  1  0  0  0  0
  2  6  1  0  0  0  0
  3  4  2  0  0  0  0
  3  7  1  0  0  0  0
  4  5  1  0  0  0  0
  4  9  1  0  0  0  0
  5  6  2  0  0  0  0
  5 10  1  0  0  0  0
  6 12  1  0  0  0  0
  7  8  2  0  0  0  0
  7 11  1  0  0  0  0
  8 13  1  0  0  0  0
M  END
> <PUBCHEM_COMPOUND_CID>
37818602

> <PUBCHEM_COMPOUND_CANONICALIZED>
1

> <PUBCHEM_CACTVS_COMPLEXITY>
90.5

> <PUBCHEM_CACTVS_HBOND_ACCEPTOR>
1

> <PUBCHEM_CACTVS_HBOND_DONOR>
0

> <PUBCHEM_CACTVS_ROTATABLE_BOND>
1

> <PUBCHEM_CACTVS_SUBSKEYS>
AAADcYBgIAAAAgAAAAAAAAAAAAAAASAAAAAAAAAAAAAAAAABgAAAGgAgAAAACASikAIwBIAABECIAKhSgAACCAAkIAAIiAEGCMgMJjKENRqCGSCkwBEIqYaIAAAAAAAAAAAAAAAAAAAAAAAAAAAAAAAAAA==

> <PUBCHEM_IUPAC_OPENEYE_NAME>
2-[(Z)-2-iodovinyl]furan

> <PUBCHEM_IUPAC_CAS_NAME>
2-[(Z)-2-iodoethenyl]furan

> <PUBCHEM_IUPAC_NAME>
2-[(Z)-2-iodoethenyl]furan

> <PUBCHEM_IUPAC_SYSTEMATIC_NAME>
2-[(Z)-2-iodanylethenyl]furan

> <PUBCHEM_IUPAC_TRADITIONAL_NAME>
2-[(Z)-2-iodovinyl]furan

> <PUBCHEM_IUPAC_INCHI>
InChI=1S/C6H5IO/c7-4-3-6-2-1-5-8-6/h1-5H/b4-3-

> <PUBCHEM_IUPAC_INCHIKEY>
BIHXVSJHMDIKIO-ARJAWSKDSA-N

> <PUBCHEM_XLOGP3>
2.6

> <PUBCHEM_EXACT_MASS>
219.938513

> <PUBCHEM_MOLECULAR_FORMULA>
C6H5IO

> <PUBCHEM_MOLECULAR_WEIGHT>
220.00777

> <PUBCHEM_OPENEYE_CAN_SMILES>
C1=COC(=C1)C=CI

> <PUBCHEM_OPENEYE_ISO_SMILES>
C1=COC(=C1)/C=C\I

> <PUBCHEM_CACTVS_TPSA>
13.1

> <PUBCHEM_MONOISOTOPIC_WEIGHT>
219.938513

> <PUBCHEM_TOTAL_CHARGE>
0

> <PUBCHEM_HEAVY_ATOM_COUNT>
8

> <PUBCHEM_ATOM_DEF_STEREO_COUNT>
0

> <PUBCHEM_ATOM_UDEF_STEREO_COUNT>
0

> <PUBCHEM_BOND_DEF_STEREO_COUNT>
1

> <PUBCHEM_BOND_UDEF_STEREO_COUNT>
0

> <PUBCHEM_ISOTOPIC_ATOM_COUNT>
0

> <PUBCHEM_COMPONENT_COUNT>
1

> <PUBCHEM_CACTVS_TAUTO_COUNT>
1

> <PUBCHEM_COORDINATE_TYPE>
1
5
255

> <PUBCHEM_BONDANNOTATIONS>
2  3  8
2  6  8
3  4  8
4  5  8
5  6  8

$$$$
