68676856
  -OEChem-12041212352D

 18 18  0     0  0  0  0  0  0999 V2000
    4.5981    2.2500    0.0000 Br  0  0  0  0  0  0  0  0  0  0  0  0
    2.0000   -2.2500    0.0000 F   0  0  0  0  0  0  0  0  0  0  0  0
    3.7320    0.7500    0.0000 C   0  0  0  0  0  0  0  0  0  0  0  0
    2.8660   -0.7500    0.0000 C   0  0  0  0  0  0  0  0  0  0  0  0
    2.8660    0.2500    0.0000 C   0  0  0  0  0  0  0  0  0  0  0  0
    4.5981    0.2500    0.0000 C   0  0  0  0  0  0  0  0  0  0  0  0
    3.7320   -1.2500    0.0000 C   0  0  0  0  0  0  0  0  0  0  0  0
    4.5981   -0.7500    0.0000 C   0  0  0  0  0  0  0  0  0  0  0  0
    3.7320    1.7500    0.0000 C   0  0  0  0  0  0  0  0  0  0  0  0
    2.0000   -1.2500    0.0000 C   0  0  0  0  0  0  0  0  0  0  0  0
    2.3291    0.5600    0.0000 H   0  0  0  0  0  0  0  0  0  0  0  0
    5.1350    0.5600    0.0000 H   0  0  0  0  0  0  0  0  0  0  0  0
    3.7320   -1.8700    0.0000 H   0  0  0  0  0  0  0  0  0  0  0  0
    5.1350   -1.0600    0.0000 H   0  0  0  0  0  0  0  0  0  0  0  0
    3.5200    2.3326    0.0000 H   0  0  0  0  0  0  0  0  0  0  0  0
    3.1215    1.6423    0.0000 H   0  0  0  0  0  0  0  0  0  0  0  0
    1.7880   -0.6674    0.0000 H   0  0  0  0  0  0  0  0  0  0  0  0
    1.3894   -1.3577    0.0000 H   0  0  0  0  0  0  0  0  0  0  0  0
  1  9  1  0  0  0  0
  2 10  1  0  0  0  0
  3  5  1  0  0  0  0
  3  6  2  0  0  0  0
  3  9  1  0  0  0  0
  4  5  2  0  0  0  0
  4  7  1  0  0  0  0
  4 10  1  0  0  0  0
  5 11  1  0  0  0  0
  6  8  1  0  0  0  0
  6 12  1  0  0  0  0
  7  8  2  0  0  0  0
  7 13  1  0  0  0  0
  8 14  1  0  0  0  0
  9 15  1  0  0  0  0
  9 16  1  0  0  0  0
 10 17  1  0  0  0  0
 10 18  1  0  0  0  0
M  END
> <PUBCHEM_COMPOUND_CID>
68676856

> <PUBCHEM_COMPOUND_CANONICALIZED>
1

> <PUBCHEM_CACTVS_COMPLEXITY>
95.3

> <PUBCHEM_CACTVS_HBOND_ACCEPTOR>
1

> <PUBCHEM_CACTVS_HBOND_DONOR>
0

> <PUBCHEM_CACTVS_ROTATABLE_BOND>
2

> <PUBCHEM_CACTVS_SUBSKEYS>
AAADccBwAQAAEAAAAAAAAAAAAAAAAAAAAAAwAAAAAAAAAAABAAAAGQBAAAABTACAGAAwAIAAAACAAiBCAAACAAAgAAAIiAAAAKgIICKAERCAIAAggAAIiBcAgEAOAAACAAAAAAAAAAQAAAAAAAAAAAAAAA==

> <PUBCHEM_IUPAC_OPENEYE_NAME>
1-(bromomethyl)-3-(fluoromethyl)benzene

> <PUBCHEM_IUPAC_CAS_NAME>
1-(bromomethyl)-3-(fluoromethyl)benzene

> <PUBCHEM_IUPAC_NAME>
1-(bromomethyl)-3-(fluoromethyl)benzene

> <PUBCHEM_IUPAC_SYSTEMATIC_NAME>
1-(bromomethyl)-3-(fluoranylmethyl)benzene

> <PUBCHEM_IUPAC_TRADITIONAL_NAME>
1-(bromomethyl)-3-(fluoromethyl)benzene

> <PUBCHEM_IUPAC_INCHI>
InChI=1S/C8H8BrF/c9-5-7-2-1-3-8(4-7)6-10/h1-4H,5-6H2

> <PUBCHEM_IUPAC_INCHIKEY>
JZHLREFAOWMDMS-UHFFFAOYSA-N

> <PUBCHEM_XLOGP3>
2.6

> <PUBCHEM_EXACT_MASS>
201.979341

> <PUBCHEM_MOLECULAR_FORMULA>
C8H8BrF

> <PUBCHEM_MOLECULAR_WEIGHT>
203.051523

> <PUBCHEM_OPENEYE_CAN_SMILES>
C1=CC(=CC(=C1)CBr)CF

> <PUBCHEM_OPENEYE_ISO_SMILES>
C1=CC(=CC(=C1)CBr)CF

> <PUBCHEM_CACTVS_TPSA>
0

> <PUBCHEM_MONOISOTOPIC_WEIGHT>
201.979341

> <PUBCHEM_TOTAL_CHARGE>
0

> <PUBCHEM_HEAVY_ATOM_COUNT>
10

> <PUBCHEM_ATOM_DEF_STEREO_COUNT>
0

> <PUBCHEM_ATOM_UDEF_STEREO_COUNT>
0

> <PUBCHEM_BOND_DEF_STEREO_COUNT>
0

> <PUBCHEM_BOND_UDEF_STEREO_COUNT>
0

> <PUBCHEM_ISOTOPIC_ATOM_COUNT>
0

> <PUBCHEM_COMPONENT_COUNT>
1

> <PUBCHEM_CACTVS_TAUTO_COUNT>
1

> <PUBCHEM_COORDINATE_TYPE>
1
5
255

> <PUBCHEM_BONDANNOTATIONS>
3  5  8
3  6  8
4  5  8
4  7  8
6  8  8
7  8  8

$$$$
68678372
  -OEChem-12041212352D

 16 16  0     0  0  0  0  0  0999 V2000
    2.0000   -0.0600    0.0000 Br  0  0  0  0  0  0  0  0  0  0  0  0
    2.0000   -2.0600    0.0000 Cl  0  0  0  0  0  0  0  0  0  0  0  0
    5.4641   -2.0600    0.0000 Cl  0  0  0  0  0  0  0  0  0  0  0  0
    4.5981    1.4400    0.0000 O   0  0  0  0  0  0  0  0  0  0  0  0
    3.7320   -0.0600    0.0000 C   0  0  0  0  0  0  0  0  0  0  0  0
    2.8660   -0.5600    0.0000 C   0  0  0  0  0  0  0  0  0  0  0  0
    3.7320    0.9400    0.0000 C   0  0  0  0  0  0  0  0  0  0  0  0
    4.5981   -0.5600    0.0000 C   0  0  0  0  0  0  0  0  0  0  0  0
    2.8660   -1.5600    0.0000 C   0  0  0  0  0  0  0  0  0  0  0  0
    4.5981   -1.5600    0.0000 C   0  0  0  0  0  0  0  0  0  0  0  0
    3.7320   -2.0600    0.0000 C   0  0  0  0  0  0  0  0  0  0  0  0
    3.5200    1.5226    0.0000 H   0  0  0  0  0  0  0  0  0  0  0  0
    3.1215    0.8323    0.0000 H   0  0  0  0  0  0  0  0  0  0  0  0
    5.1350   -0.2500    0.0000 H   0  0  0  0  0  0  0  0  0  0  0  0
    3.7320   -2.6800    0.0000 H   0  0  0  0  0  0  0  0  0  0  0  0
    4.5981    2.0600    0.0000 H   0  0  0  0  0  0  0  0  0  0  0  0
  1  6  1  0  0  0  0
  2  9  1  0  0  0  0
  3 10  1  0  0  0  0
  4  7  1  0  0  0  0
  4 16  1  0  0  0  0
  5  6  2  0  0  0  0
  5  7  1  0  0  0  0
  5  8  1  0  0  0  0
  6  9  1  0  0  0  0
  7 12  1  0  0  0  0
  7 13  1  0  0  0  0
  8 10  2  0  0  0  0
  8 14  1  0  0  0  0
  9 11  2  0  0  0  0
 10 11  1  0  0  0  0
 11 15  1  0  0  0  0
M  END
> <PUBCHEM_COMPOUND_CID>
68678372

> <PUBCHEM_COMPOUND_CANONICALIZED>
1

> <PUBCHEM_CACTVS_COMPLEXITY>
134

> <PUBCHEM_CACTVS_HBOND_ACCEPTOR>
1

> <PUBCHEM_CACTVS_HBOND_DONOR>
1

> <PUBCHEM_CACTVS_ROTATABLE_BOND>
1

> <PUBCHEM_CACTVS_SUBSKEYS>
AAADcYBgIAAGEAAAAAAAAAAAAAAAAAAAAAAwAAAAAAAAAAABAAAAGgJACAABrAKgmCIwAIAAAgCAAiBCAAACAAAgBQQAiAAACqgINiKBExCAcAAkwAEImheAwCAOAAAIIACAgAIAABBAAQEABAAAAAAAAA==

> <PUBCHEM_IUPAC_OPENEYE_NAME>
(2-bromo-3,5-dichloro-phenyl)methanol

> <PUBCHEM_IUPAC_CAS_NAME>
(2-bromo-3,5-dichlorophenyl)methanol

> <PUBCHEM_IUPAC_NAME>
(2-bromo-3,5-dichlorophenyl)methanol

> <PUBCHEM_IUPAC_SYSTEMATIC_NAME>
[2-bromanyl-3,5-bis(chloranyl)phenyl]methanol

> <PUBCHEM_IUPAC_TRADITIONAL_NAME>
(2-bromo-3,5-dichloro-phenyl)methanol

> <PUBCHEM_IUPAC_INCHI>
InChI=1S/C7H5BrCl2O/c8-7-4(3-11)1-5(9)2-6(7)10/h1-2,11H,3H2

> <PUBCHEM_IUPAC_INCHIKEY>
HAQSEHWBSTZKJY-UHFFFAOYSA-N

> <PUBCHEM_XLOGP3>
2.8

> <PUBCHEM_EXACT_MASS>
253.890082

> <PUBCHEM_MOLECULAR_FORMULA>
C7H5BrCl2O

> <PUBCHEM_MOLECULAR_WEIGHT>
255.924

> <PUBCHEM_OPENEYE_CAN_SMILES>
C1=C(C=C(C(=C1Cl)Br)CO)Cl

> <PUBCHEM_OPENEYE_ISO_SMILES>
C1=C(C=C(C(=C1Cl)Br)CO)Cl

> <PUBCHEM_CACTVS_TPSA>
20.2

> <PUBCHEM_MONOISOTOPIC_WEIGHT>
253.890082

> <PUBCHEM_TOTAL_CHARGE>
0

> <PUBCHEM_HEAVY_ATOM_COUNT>
11

> <PUBCHEM_ATOM_DEF_STEREO_COUNT>
0

> <PUBCHEM_ATOM_UDEF_STEREO_COUNT>
0

> <PUBCHEM_BOND_DEF_STEREO_COUNT>
0

> <PUBCHEM_BOND_UDEF_STEREO_COUNT>
0

> <PUBCHEM_ISOTOPIC_ATOM_COUNT>
0

> <PUBCHEM_COMPONENT_COUNT>
1

> <PUBCHEM_CACTVS_TAUTO_COUNT>
1

> <PUBCHEM_COORDINATE_TYPE>
1
5
255

> <PUBCHEM_BONDANNOTATIONS>
10  11  8
5  6  8
5  8  8
6  9  8
8  10  8
9  11  8

$$$$
68678424
  -OEChem-12041212352D

 17 17  0     0  0  0  0  0  0999 V2000
    2.0000   -2.1550    0.0000 I   0  0  0  0  0  0  0  0  0  0  0  0
    3.7320    1.8450    0.0000 N   0  0  0  0  0  0  0  0  0  0  0  0
    2.8660   -0.6550    0.0000 C   0  0  0  0  0  0  0  0  0  0  0  0
    2.8660    0.3450    0.0000 C   0  0  0  0  0  0  0  0  0  0  0  0
    3.7320    0.8450    0.0000 C   0  0  0  0  0  0  0  0  0  0  0  0
    3.7320   -1.1550    0.0000 C   0  0  0  0  0  0  0  0  0  0  0  0
    4.5981    0.3450    0.0000 C   0  0  0  0  0  0  0  0  0  0  0  0
    2.0000   -1.1550    0.0000 C   0  0  0  0  0  0  0  0  0  0  0  0
    4.5981   -0.6550    0.0000 C   0  0  0  0  0  0  0  0  0  0  0  0
    2.3291    0.6550    0.0000 H   0  0  0  0  0  0  0  0  0  0  0  0
    3.7320   -1.7750    0.0000 H   0  0  0  0  0  0  0  0  0  0  0  0
    5.1350    0.6550    0.0000 H   0  0  0  0  0  0  0  0  0  0  0  0
    1.7880   -0.5724    0.0000 H   0  0  0  0  0  0  0  0  0  0  0  0
    1.3894   -1.2627    0.0000 H   0  0  0  0  0  0  0  0  0  0  0  0
    5.1350   -0.9650    0.0000 H   0  0  0  0  0  0  0  0  0  0  0  0
    4.2690    2.1550    0.0000 H   0  0  0  0  0  0  0  0  0  0  0  0
    3.1951    2.1550    0.0000 H   0  0  0  0  0  0  0  0  0  0  0  0
  1  8  1  0  0  0  0
  2  5  1  0  0  0  0
  2 16  1  0  0  0  0
  2 17  1  0  0  0  0
  3  4  2  0  0  0  0
  3  6  1  0  0  0  0
  3  8  1  0  0  0  0
  4  5  1  0  0  0  0
  4 10  1  0  0  0  0
  5  7  2  0  0  0  0
  6  9  2  0  0  0  0
  6 11  1  0  0  0  0
  7  9  1  0  0  0  0
  7 12  1  0  0  0  0
  8 13  1  0  0  0  0
  8 14  1  0  0  0  0
  9 15  1  0  0  0  0
M  END
> <PUBCHEM_COMPOUND_CID>
68678424

> <PUBCHEM_COMPOUND_CANONICALIZED>
1

> <PUBCHEM_CACTVS_COMPLEXITY>
85

> <PUBCHEM_CACTVS_HBOND_ACCEPTOR>
1

> <PUBCHEM_CACTVS_HBOND_DONOR>
1

> <PUBCHEM_CACTVS_ROTATABLE_BOND>
1

> <PUBCHEM_CACTVS_SUBSKEYS>
AAADccBiAAAAAgAAAAAAAAAAAAAAAAAAAAAwAAAAAAAAAAABAAAAHAAwAAAADAiDGAAwwIBAAACAAiRCQACCAAAgAgAIiAAAZIgIICKAkZGAIABgkAAIyAcQgAAOAAAAQAAAAAAAAACAAAAAAAAAAAAAAA==

> <PUBCHEM_IUPAC_OPENEYE_NAME>
3-(iodomethyl)aniline

> <PUBCHEM_IUPAC_CAS_NAME>
3-(iodomethyl)aniline

> <PUBCHEM_IUPAC_NAME>
3-(iodomethyl)aniline

> <PUBCHEM_IUPAC_SYSTEMATIC_NAME>
3-(iodanylmethyl)aniline

> <PUBCHEM_IUPAC_TRADITIONAL_NAME>
[3-(iodomethyl)phenyl]amine

> <PUBCHEM_IUPAC_INCHI>
InChI=1S/C7H8IN/c8-5-6-2-1-3-7(9)4-6/h1-4H,5,9H2

> <PUBCHEM_IUPAC_INCHIKEY>
DBPFUJGBNCDDPU-UHFFFAOYSA-N

> <PUBCHEM_XLOGP3>
2

> <PUBCHEM_EXACT_MASS>
232.970147

> <PUBCHEM_MOLECULAR_FORMULA>
C7H8IN

> <PUBCHEM_MOLECULAR_WEIGHT>
233.04959

> <PUBCHEM_OPENEYE_CAN_SMILES>
C1=CC(=CC(=C1)N)CI

> <PUBCHEM_OPENEYE_ISO_SMILES>
C1=CC(=CC(=C1)N)CI

> <PUBCHEM_CACTVS_TPSA>
26

> <PUBCHEM_MONOISOTOPIC_WEIGHT>
232.970147

> <PUBCHEM_TOTAL_CHARGE>
0

> <PUBCHEM_HEAVY_ATOM_COUNT>
9

> <PUBCHEM_ATOM_DEF_STEREO_COUNT>
0

> <PUBCHEM_ATOM_UDEF_STEREO_COUNT>
0

> <PUBCHEM_BOND_DEF_STEREO_COUNT>
0

> <PUBCHEM_BOND_UDEF_STEREO_COUNT>
0

> <PUBCHEM_ISOTOPIC_ATOM_COUNT>
0

> <PUBCHEM_COMPONENT_COUNT>
1

> <PUBCHEM_CACTVS_TAUTO_COUNT>
1

> <PUBCHEM_COORDINATE_TYPE>
1
5
255

> <PUBCHEM_BONDANNOTATIONS>
3  4  8
3  6  8
4  5  8
5  7  8
6  9  8
7  9  8

$$$$
68687381
  -OEChem-12041212362D

 25 27  0     0  0  0  0  0  0999 V2000
    2.9180   -0.5775    0.0000 O   0  0  0  0  0  0  0  0  0  0  0  0
    3.7841   -1.0775    0.0000 C   0  0  0  0  0  0  0  0  0  0  0  0
    4.4912   -1.7846    0.0000 C   0  0  0  0  0  0  0  0  0  0  0  0
    3.0770   -1.7846    0.0000 C   0  0  0  0  0  0  0  0  0  0  0  0
    3.7841   -2.4917    0.0000 C   0  0  0  0  0  0  0  0  0  0  0  0
    4.6501   -0.5775    0.0000 C   0  0  0  0  0  0  0  0  0  0  0  0
    2.9180    0.4225    0.0000 C   0  0  0  0  0  0  0  0  0  0  0  0
    4.6501    0.4225    0.0000 C   0  0  0  0  0  0  0  0  0  0  0  0
    3.7841    0.9225    0.0000 C   0  0  0  0  0  0  0  0  0  0  0  0
    2.0080    0.9293    0.0000 C   0  0  0  0  0  0  0  0  0  0  0  0
    3.8001    1.9640    0.0000 C   0  0  0  0  0  0  0  0  0  0  0  0
    2.0000    1.9709    0.0000 C   0  0  0  0  0  0  0  0  0  0  0  0
    2.9021    2.4917    0.0000 C   0  0  0  0  0  0  0  0  0  0  0  0
    4.9296   -2.2230    0.0000 H   0  0  0  0  0  0  0  0  0  0  0  0
    4.9296   -1.3462    0.0000 H   0  0  0  0  0  0  0  0  0  0  0  0
    2.6385   -1.3462    0.0000 H   0  0  0  0  0  0  0  0  0  0  0  0
    2.6385   -2.2230    0.0000 H   0  0  0  0  0  0  0  0  0  0  0  0
    3.3456   -2.9301    0.0000 H   0  0  0  0  0  0  0  0  0  0  0  0
    4.2225   -2.9301    0.0000 H   0  0  0  0  0  0  0  0  0  0  0  0
    5.1870   -0.8875    0.0000 H   0  0  0  0  0  0  0  0  0  0  0  0
    5.1870    0.7325    0.0000 H   0  0  0  0  0  0  0  0  0  0  0  0
    1.4747    0.6131    0.0000 H   0  0  0  0  0  0  0  0  0  0  0  0
    4.3406    2.2678    0.0000 H   0  0  0  0  0  0  0  0  0  0  0  0
    1.4619    2.2788    0.0000 H   0  0  0  0  0  0  0  0  0  0  0  0
    2.9045    3.1117    0.0000 H   0  0  0  0  0  0  0  0  0  0  0  0
  1  2  1  0  0  0  0
  1  7  1  0  0  0  0
  2  3  1  0  0  0  0
  2  4  1  0  0  0  0
  2  6  1  0  0  0  0
  3  5  1  0  0  0  0
  3 14  1  0  0  0  0
  3 15  1  0  0  0  0
  4  5  1  0  0  0  0
  4 16  1  0  0  0  0
  4 17  1  0  0  0  0
  5 18  1  0  0  0  0
  5 19  1  0  0  0  0
  6  8  2  0  0  0  0
  6 20  1  0  0  0  0
  7  9  1  0  0  0  0
  7 10  2  0  0  0  0
  8  9  1  0  0  0  0
  8 21  1  0  0  0  0
  9 11  2  0  0  0  0
 10 12  1  0  0  0  0
 10 22  1  0  0  0  0
 11 13  1  0  0  0  0
 11 23  1  0  0  0  0
 12 13  2  0  0  0  0
 12 24  1  0  0  0  0
 13 25  1  0  0  0  0
M  END
> <PUBCHEM_COMPOUND_CID>
68687381

> <PUBCHEM_COMPOUND_CANONICALIZED>
1

> <PUBCHEM_CACTVS_COMPLEXITY>
227

> <PUBCHEM_CACTVS_HBOND_ACCEPTOR>
1

> <PUBCHEM_CACTVS_HBOND_DONOR>
0

> <PUBCHEM_CACTVS_ROTATABLE_BOND>
0

> <PUBCHEM_CACTVS_SUBSKEYS>
AAADccBwIAAAAAAAAAAAAAAAAABgAAAAAAAwQAAAAAAAAACBAAAAGgAAAAAADESAmAAwBoAABACAAiBCAAACCAAgIAAIiAAGCIgMJiKEMRqCOCCkwBEIqAeAwCAOAAAAAAAIAAAAAAAAABAAAAAAAAAAAA==

> <PUBCHEM_IUPAC_OPENEYE_NAME>
spiro[chromene-2,1'-cyclobutane]

> <PUBCHEM_IUPAC_CAS_NAME>
spiro[1-benzopyran-2,1'-cyclobutane]

> <PUBCHEM_IUPAC_NAME>
spiro[chromene-2,1'-cyclobutane]

> <PUBCHEM_IUPAC_SYSTEMATIC_NAME>
spiro[chromene-2,1'-cyclobutane]

> <PUBCHEM_IUPAC_TRADITIONAL_NAME>
spiro[chromene-2,1'-cyclobutane]

> <PUBCHEM_IUPAC_INCHI>
InChI=1S/C12H12O/c1-2-5-11-10(4-1)6-9-12(13-11)7-3-8-12/h1-2,4-6,9H,3,7-8H2

> <PUBCHEM_IUPAC_INCHIKEY>
IFCLLMDAVBMBSK-UHFFFAOYSA-N

> <PUBCHEM_XLOGP3>
3.4

> <PUBCHEM_EXACT_MASS>
172.088815

> <PUBCHEM_MOLECULAR_FORMULA>
C12H12O

> <PUBCHEM_MOLECULAR_WEIGHT>
172.22308

> <PUBCHEM_OPENEYE_CAN_SMILES>
C1CC2(C1)C=CC3=CC=CC=C3O2

> <PUBCHEM_OPENEYE_ISO_SMILES>
C1CC2(C1)C=CC3=CC=CC=C3O2

> <PUBCHEM_CACTVS_TPSA>
9.2

> <PUBCHEM_MONOISOTOPIC_WEIGHT>
172.088815

> <PUBCHEM_TOTAL_CHARGE>
0

> <PUBCHEM_HEAVY_ATOM_COUNT>
13

> <PUBCHEM_ATOM_DEF_STEREO_COUNT>
0

> <PUBCHEM_ATOM_UDEF_STEREO_COUNT>
0

> <PUBCHEM_BOND_DEF_STEREO_COUNT>
0

> <PUBCHEM_BOND_UDEF_STEREO_COUNT>
0

> <PUBCHEM_ISOTOPIC_ATOM_COUNT>
0

> <PUBCHEM_COMPONENT_COUNT>
1

> <PUBCHEM_CACTVS_TAUTO_COUNT>
1

> <PUBCHEM_COORDINATE_TYPE>
1
5
255

> <PUBCHEM_BONDANNOTATIONS>
10  12  8
11  13  8
12  13  8
7  10  8
7  9  8
9  11  8

$$$$
68689292
  -OEChem-12041212372D

 41 42  0     0  0  0  0  0  0999 V2000
    5.4641    5.1270    0.0000 S   0  0  0  0  0  0  0  0  0  0  0  0
    7.1962    6.1270    0.0000 F   0  0  0  0  0  0  0  0  0  0  0  0
    5.8301    6.4930    0.0000 F   0  0  0  0  0  0  0  0  0  0  0  0
    6.8301    4.7610    0.0000 F   0  0  0  0  0  0  0  0  0  0  0  0
    4.5981    0.6270    0.0000 O   0  0  0  0  0  0  0  0  0  0  0  0
    2.8660   -1.3730    0.0000 O   0  0  0  0  0  0  0  0  0  0  0  0
    4.9641    5.9930    0.0000 O   0  0  0  0  0  0  0  0  0  0  0  0
    5.9641    4.2610    0.0000 O   0  0  0  0  0  0  0  0  0  0  0  0
    2.0000   -5.8730    0.0000 O   0  0  0  0  0  0  0  0  0  0  0  0
    3.7320   -5.8730    0.0000 O   0  0  0  0  0  0  0  0  0  0  0  0
    4.5981    4.6270    0.0000 N   0  0  0  0  0  0  0  0  0  0  0  0
    4.5981    3.6270    0.0000 C   0  0  0  0  0  0  0  0  0  0  0  0
    4.5981    1.6270    0.0000 C   0  0  0  0  0  0  0  0  0  0  0  0
    3.7320    0.1270    0.0000 C   0  0  0  0  0  0  0  0  0  0  0  0
    5.4641    3.1270    0.0000 C   0  0  0  0  0  0  0  0  0  0  0  0
    3.7320    3.1270    0.0000 C   0  0  0  0  0  0  0  0  0  0  0  0
    3.7320   -0.8730    0.0000 C   0  0  0  0  0  0  0  0  0  0  0  0
    5.4641    2.1270    0.0000 C   0  0  0  0  0  0  0  0  0  0  0  0
    3.7320    2.1270    0.0000 C   0  0  0  0  0  0  0  0  0  0  0  0
    2.8660   -2.3730    0.0000 C   0  0  0  0  0  0  0  0  0  0  0  0
    6.3301    5.6270    0.0000 C   0  0  0  0  0  0  0  0  0  0  0  0
    2.0000   -2.8730    0.0000 C   0  0  0  0  0  0  0  0  0  0  0  0
    3.7320   -2.8730    0.0000 C   0  0  0  0  0  0  0  0  0  0  0  0
    2.8660   -4.3730    0.0000 C   0  0  0  0  0  0  0  0  0  0  0  0
    2.0000   -3.8730    0.0000 C   0  0  0  0  0  0  0  0  0  0  0  0
    3.7320   -3.8730    0.0000 C   0  0  0  0  0  0  0  0  0  0  0  0
    2.8660   -5.3730    0.0000 C   0  0  0  0  0  0  0  0  0  0  0  0
    4.0611    4.9370    0.0000 H   0  0  0  0  0  0  0  0  0  0  0  0
    3.5200    0.7096    0.0000 H   0  0  0  0  0  0  0  0  0  0  0  0
    3.1215    0.0193    0.0000 H   0  0  0  0  0  0  0  0  0  0  0  0
    6.0010    3.4370    0.0000 H   0  0  0  0  0  0  0  0  0  0  0  0
    3.1951    3.4370    0.0000 H   0  0  0  0  0  0  0  0  0  0  0  0
    3.9441   -1.4556    0.0000 H   0  0  0  0  0  0  0  0  0  0  0  0
    4.3426   -0.7654    0.0000 H   0  0  0  0  0  0  0  0  0  0  0  0
    6.0010    1.8170    0.0000 H   0  0  0  0  0  0  0  0  0  0  0  0
    3.1951    1.8170    0.0000 H   0  0  0  0  0  0  0  0  0  0  0  0
    1.4631   -2.5630    0.0000 H   0  0  0  0  0  0  0  0  0  0  0  0
    4.2690   -2.5630    0.0000 H   0  0  0  0  0  0  0  0  0  0  0  0
    1.4631   -4.1830    0.0000 H   0  0  0  0  0  0  0  0  0  0  0  0
    4.2690   -4.1830    0.0000 H   0  0  0  0  0  0  0  0  0  0  0  0
    2.0000   -6.4930    0.0000 H   0  0  0  0  0  0  0  0  0  0  0  0
  1  7  2  0  0  0  0
  1  8  2  0  0  0  0
  1 11  1  0  0  0  0
  1 21  1  0  0  0  0
  2 21  1  0  0  0  0
  3 21  1  0  0  0  0
  4 21  1  0  0  0  0
  5 13  1  0  0  0  0
  5 14  1  0  0  0  0
  6 17  1  0  0  0  0
  6 20  1  0  0  0  0
  9 27  1  0  0  0  0
  9 41  1  0  0  0  0
 10 27  2  0  0  0  0
 11 12  1  0  0  0  0
 11 28  1  0  0  0  0
 12 15  2  0  0  0  0
 12 16  1  0  0  0  0
 13 18  2  0  0  0  0
 13 19  1  0  0  0  0
 14 17  1  0  0  0  0
 14 29  1  0  0  0  0
 14 30  1  0  0  0  0
 15 18  1  0  0  0  0
 15 31  1  0  0  0  0
 16 19  2  0  0  0  0
 16 32  1  0  0  0  0
 17 33  1  0  0  0  0
 17 34  1  0  0  0  0
 18 35  1  0  0  0  0
 19 36  1  0  0  0  0
 20 22  2  0  0  0  0
 20 23  1  0  0  0  0
 22 25  1  0  0  0  0
 22 37  1  0  0  0  0
 23 26  2  0  0  0  0
 23 38  1  0  0  0  0
 24 25  2  0  0  0  0
 24 26  1  0  0  0  0
 24 27  1  0  0  0  0
 25 39  1  0  0  0  0
 26 40  1  0  0  0  0
M  END
> <PUBCHEM_COMPOUND_CID>
68689292

> <PUBCHEM_COMPOUND_CANONICALIZED>
1

> <PUBCHEM_CACTVS_COMPLEXITY>
576

> <PUBCHEM_CACTVS_HBOND_ACCEPTOR>
10

> <PUBCHEM_CACTVS_HBOND_DONOR>
2

> <PUBCHEM_CACTVS_ROTATABLE_BOND>
8

> <PUBCHEM_CACTVS_SUBSKEYS>
AAADccB6OYBAAAAAAAAAAAAAAAAAAAAAAAAwYAAAAAAAAAABQAAAHwQQSAAADAyhmBIwzoBABgKIAiTSSHCCCAAkIgAIiAEGbMgNJjKEtZuCeSDk0BEK+Ye47CzOIEAAAAAAAABAgAAAAAAAAAAAAAAAAA==

> <PUBCHEM_IUPAC_OPENEYE_NAME>
4-[2-[4-(trifluoromethylsulfonylamino)phenoxy]ethoxy]benzoic acid

> <PUBCHEM_IUPAC_CAS_NAME>
4-[2-[4-(trifluoromethylsulfonylamino)phenoxy]ethoxy]benzoic acid

> <PUBCHEM_IUPAC_NAME>
4-[2-[4-(trifluoromethylsulfonylamino)phenoxy]ethoxy]benzoic acid

> <PUBCHEM_IUPAC_SYSTEMATIC_NAME>
4-[2-[4-(trifluoromethylsulfonylamino)phenoxy]ethoxy]benzoic acid

> <PUBCHEM_IUPAC_TRADITIONAL_NAME>
4-[2-[4-(triflylamino)phenoxy]ethoxy]benzoic acid

> <PUBCHEM_IUPAC_INCHI>
InChI=1S/C16H14F3NO6S/c17-16(18,19)27(23,24)20-12-3-7-14(8-4-12)26-10-9-25-13-5-1-11(2-6-13)15(21)22/h1-8,20H,9-10H2,(H,21,22)

> <PUBCHEM_IUPAC_INCHIKEY>
QERYYZMVEGIUPW-UHFFFAOYSA-N

> <PUBCHEM_XLOGP3>
4.2

> <PUBCHEM_EXACT_MASS>
405.049393

> <PUBCHEM_MOLECULAR_FORMULA>
C16H14F3NO6S

> <PUBCHEM_MOLECULAR_WEIGHT>
405.34567

> <PUBCHEM_OPENEYE_CAN_SMILES>
C1=CC(=CC=C1C(=O)O)OCCOC2=CC=C(C=C2)NS(=O)(=O)C(F)(F)F

> <PUBCHEM_OPENEYE_ISO_SMILES>
C1=CC(=CC=C1C(=O)O)OCCOC2=CC=C(C=C2)NS(=O)(=O)C(F)(F)F

> <PUBCHEM_CACTVS_TPSA>
110

> <PUBCHEM_MONOISOTOPIC_WEIGHT>
405.049393

> <PUBCHEM_TOTAL_CHARGE>
0

> <PUBCHEM_HEAVY_ATOM_COUNT>
27

> <PUBCHEM_ATOM_DEF_STEREO_COUNT>
0

> <PUBCHEM_ATOM_UDEF_STEREO_COUNT>
0

> <PUBCHEM_BOND_DEF_STEREO_COUNT>
0

> <PUBCHEM_BOND_UDEF_STEREO_COUNT>
0

> <PUBCHEM_ISOTOPIC_ATOM_COUNT>
0

> <PUBCHEM_COMPONENT_COUNT>
1

> <PUBCHEM_CACTVS_TAUTO_COUNT>
1

> <PUBCHEM_COORDINATE_TYPE>
1
5
255

> <PUBCHEM_BONDANNOTATIONS>
12  15  8
12  16  8
13  18  8
13  19  8
15  18  8
16  19  8
20  22  8
20  23  8
22  25  8
23  26  8
24  25  8
24  26  8

$$$$
68689551
  -OEChem-12041212372D

 25 26  0     0  0  0  0  0  0999 V2000
    2.8660   -1.7906    0.0000 N   0  0  0  0  0  0  0  0  0  0  0  0
    3.7320    2.7094    0.0000 N   0  0  0  0  0  0  0  0  0  0  0  0
    2.0000    2.7094    0.0000 N   0  0  0  0  0  0  0  0  0  0  0  0
    2.8660   -0.7906    0.0000 C   0  0  0  0  0  0  0  0  0  0  0  0
    2.0000   -0.2906    0.0000 C   0  0  0  0  0  0  0  0  0  0  0  0
    3.7320   -0.2906    0.0000 C   0  0  0  0  0  0  0  0  0  0  0  0
    2.8660    1.2094    0.0000 C   0  0  0  0  0  0  0  0  0  0  0  0
    2.0570   -2.3784    0.0000 C   0  0  0  0  0  0  0  0  0  0  0  0
    3.6750   -2.3784    0.0000 C   0  0  0  0  0  0  0  0  0  0  0  0
    2.0000    0.7094    0.0000 C   0  0  0  0  0  0  0  0  0  0  0  0
    3.7320    0.7094    0.0000 C   0  0  0  0  0  0  0  0  0  0  0  0
    3.3660   -3.3294    0.0000 C   0  0  0  0  0  0  0  0  0  0  0  0
    2.3660   -3.3294    0.0000 C   0  0  0  0  0  0  0  0  0  0  0  0
    2.8660    2.2094    0.0000 C   0  0  0  0  0  0  0  0  0  0  0  0
    1.4631   -0.6006    0.0000 H   0  0  0  0  0  0  0  0  0  0  0  0
    4.2690   -0.6006    0.0000 H   0  0  0  0  0  0  0  0  0  0  0  0
    1.4674   -2.1868    0.0000 H   0  0  0  0  0  0  0  0  0  0  0  0
    4.2647   -2.1868    0.0000 H   0  0  0  0  0  0  0  0  0  0  0  0
    1.4631    1.0194    0.0000 H   0  0  0  0  0  0  0  0  0  0  0  0
    4.2690    1.0194    0.0000 H   0  0  0  0  0  0  0  0  0  0  0  0
    2.0016   -3.8310    0.0000 H   0  0  0  0  0  0  0  0  0  0  0  0
    3.7304   -3.8310    0.0000 H   0  0  0  0  0  0  0  0  0  0  0  0
    3.7320    3.3294    0.0000 H   0  0  0  0  0  0  0  0  0  0  0  0
    4.2690    2.3994    0.0000 H   0  0  0  0  0  0  0  0  0  0  0  0
    2.0000    3.3294    0.0000 H   0  0  0  0  0  0  0  0  0  0  0  0
  1  4  1  0  0  0  0
  1  8  1  0  0  0  0
  1  9  1  0  0  0  0
  2 14  1  0  0  0  0
  2 23  1  0  0  0  0
  2 24  1  0  0  0  0
  3 14  2  0  0  0  0
  3 25  1  0  0  0  0
  4  5  2  0  0  0  0
  4  6  1  0  0  0  0
  5 10  1  0  0  0  0
  5 15  1  0  0  0  0
  6 11  2  0  0  0  0
  6 16  1  0  0  0  0
  7 10  2  0  0  0  0
  7 11  1  0  0  0  0
  7 14  1  0  0  0  0
  8 13  2  0  0  0  0
  8 17  1  0  0  0  0
  9 12  2  0  0  0  0
  9 18  1  0  0  0  0
 10 19  1  0  0  0  0
 11 20  1  0  0  0  0
 12 13  1  0  0  0  0
 12 22  1  0  0  0  0
 13 21  1  0  0  0  0
M  END
> <PUBCHEM_COMPOUND_CID>
68689551

> <PUBCHEM_COMPOUND_CANONICALIZED>
1

> <PUBCHEM_CACTVS_COMPLEXITY>
201

> <PUBCHEM_CACTVS_HBOND_ACCEPTOR>
1

> <PUBCHEM_CACTVS_HBOND_DONOR>
2

> <PUBCHEM_CACTVS_ROTATABLE_BOND>
2

> <PUBCHEM_CACTVS_SUBSKEYS>
AAADccBzAAAAAAAAAAAAAAAAAAAAAWAAAAAwAAAAAAAAAAABwAAAHAAQAAAADAjBGgQ9wJNMEACgAjZnZACCgCCxAiAI2CA4ZJgIIOLAkZGEIAhggADIyAcQgAAOCAAAAAAAAAAQAAAAAAAAAAAAAAAAAA==

> <PUBCHEM_IUPAC_OPENEYE_NAME>
4-pyrrol-1-ylbenzamidine

> <PUBCHEM_IUPAC_CAS_NAME>
4-(1-pyrrolyl)benzenecarboximidamide

> <PUBCHEM_IUPAC_NAME>
4-pyrrol-1-ylbenzenecarboximidamide

> <PUBCHEM_IUPAC_SYSTEMATIC_NAME>
4-pyrrol-1-ylbenzenecarboximidamide

> <PUBCHEM_IUPAC_TRADITIONAL_NAME>
4-pyrrol-1-ylbenzamidine

> <PUBCHEM_IUPAC_INCHI>
InChI=1S/C11H11N3/c12-11(13)9-3-5-10(6-4-9)14-7-1-2-8-14/h1-8H,(H3,12,13)

> <PUBCHEM_IUPAC_INCHIKEY>
FYMFKEZOXPACIO-UHFFFAOYSA-N

> <PUBCHEM_XLOGP3>
2

> <PUBCHEM_EXACT_MASS>
185.095297

> <PUBCHEM_MOLECULAR_FORMULA>
C11H11N3

> <PUBCHEM_MOLECULAR_WEIGHT>
185.22514

> <PUBCHEM_OPENEYE_CAN_SMILES>
C1=CN(C=C1)C2=CC=C(C=C2)C(=N)N

> <PUBCHEM_OPENEYE_ISO_SMILES>
C1=CN(C=C1)C2=CC=C(C=C2)C(=N)N

> <PUBCHEM_CACTVS_TPSA>
54.8

> <PUBCHEM_MONOISOTOPIC_WEIGHT>
185.095297

> <PUBCHEM_TOTAL_CHARGE>
0

> <PUBCHEM_HEAVY_ATOM_COUNT>
14

> <PUBCHEM_ATOM_DEF_STEREO_COUNT>
0

> <PUBCHEM_ATOM_UDEF_STEREO_COUNT>
0

> <PUBCHEM_BOND_DEF_STEREO_COUNT>
0

> <PUBCHEM_BOND_UDEF_STEREO_COUNT>
0

> <PUBCHEM_ISOTOPIC_ATOM_COUNT>
0

> <PUBCHEM_COMPONENT_COUNT>
1

> <PUBCHEM_CACTVS_TAUTO_COUNT>
1

> <PUBCHEM_COORDINATE_TYPE>
1
5
255

> <PUBCHEM_BONDANNOTATIONS>
1  8  8
1  9  8
12  13  8
4  5  8
4  6  8
5  10  8
6  11  8
7  10  8
7  11  8
8  13  8
9  12  8

$$$$
68690977
  -OEChem-12041212372D

 51 53  0     0  0  0  0  0  0999 V2000
    3.0000    1.0000    0.0000 S   0  0  0  0  0  0  0  0  0  0  0  0
    3.0000   -4.0000    0.0000 F   0  0  0  0  0  0  0  0  0  0  0  0
    2.0000   -3.0000    0.0000 F   0  0  0  0  0  0  0  0  0  0  0  0
    4.0000   -3.0000    0.0000 F   0  0  0  0  0  0  0  0  0  0  0  0
    4.7320    1.0000    0.0000 O   0  0  0  0  0  0  0  0  0  0  0  0
    4.0000    1.0000    0.0000 O   0  0  0  0  0  0  0  0  0  0  0  0
    2.0000    1.0000    0.0000 O   0  0  0  0  0  0  0  0  0  0  0  0
    7.3301    0.5000    0.0000 O   0  0  0  0  0  0  0  0  0  0  0  0
   11.6603    2.0000    0.0000 O   0  0  0  0  0  0  0  0  0  0  0  0
   10.7942    3.5000    0.0000 O   0  0  0  0  0  0  0  0  0  0  0  0
    3.0000    2.0000    0.0000 N   0  0  0  0  0  0  0  0  0  0  0  0
    3.0000    0.0000    0.0000 C   0  0  0  0  0  0  0  0  0  0  0  0
    3.8660    2.5000    0.0000 C   0  0  0  0  0  0  0  0  0  0  0  0
    4.7320    2.0000    0.0000 C   0  0  0  0  0  0  0  0  0  0  0  0
    2.1340   -0.5000    0.0000 C   0  0  0  0  0  0  0  0  0  0  0  0
    3.8660   -0.5000    0.0000 C   0  0  0  0  0  0  0  0  0  0  0  0
    3.0000   -2.0000    0.0000 C   0  0  0  0  0  0  0  0  0  0  0  0
    2.1340   -1.5000    0.0000 C   0  0  0  0  0  0  0  0  0  0  0  0
    3.8660   -1.5000    0.0000 C   0  0  0  0  0  0  0  0  0  0  0  0
    3.8660    3.5000    0.0000 C   0  0  0  0  0  0  0  0  0  0  0  0
    5.5981    0.5000    0.0000 C   0  0  0  0  0  0  0  0  0  0  0  0
    5.5981    2.5000    0.0000 C   0  0  0  0  0  0  0  0  0  0  0  0
    6.4641    1.0000    0.0000 C   0  0  0  0  0  0  0  0  0  0  0  0
    4.7320    4.0000    0.0000 C   0  0  0  0  0  0  0  0  0  0  0  0
    5.5981    3.5000    0.0000 C   0  0  0  0  0  0  0  0  0  0  0  0
    3.0000   -3.0000    0.0000 C   0  0  0  0  0  0  0  0  0  0  0  0
    8.1962    1.0000    0.0000 C   0  0  0  0  0  0  0  0  0  0  0  0
    9.0622    0.5000    0.0000 C   0  0  0  0  0  0  0  0  0  0  0  0
    8.1962    2.0000    0.0000 C   0  0  0  0  0  0  0  0  0  0  0  0
    9.9282    2.0000    0.0000 C   0  0  0  0  0  0  0  0  0  0  0  0
    9.9282    1.0000    0.0000 C   0  0  0  0  0  0  0  0  0  0  0  0
    9.0622    2.5000    0.0000 C   0  0  0  0  0  0  0  0  0  0  0  0
   10.7942    2.5000    0.0000 C   0  0  0  0  0  0  0  0  0  0  0  0
    2.4631    2.3100    0.0000 H   0  0  0  0  0  0  0  0  0  0  0  0
    1.5970   -0.1900    0.0000 H   0  0  0  0  0  0  0  0  0  0  0  0
    4.4030   -0.1900    0.0000 H   0  0  0  0  0  0  0  0  0  0  0  0
    1.5970   -1.8100    0.0000 H   0  0  0  0  0  0  0  0  0  0  0  0
    4.4030   -1.8100    0.0000 H   0  0  0  0  0  0  0  0  0  0  0  0
    3.3291    3.8100    0.0000 H   0  0  0  0  0  0  0  0  0  0  0  0
    5.1996    0.0251    0.0000 H   0  0  0  0  0  0  0  0  0  0  0  0
    5.9966    0.0251    0.0000 H   0  0  0  0  0  0  0  0  0  0  0  0
    6.1350    2.1900    0.0000 H   0  0  0  0  0  0  0  0  0  0  0  0
    6.8626    1.4750    0.0000 H   0  0  0  0  0  0  0  0  0  0  0  0
    6.0656    1.4750    0.0000 H   0  0  0  0  0  0  0  0  0  0  0  0
    4.7320    4.6200    0.0000 H   0  0  0  0  0  0  0  0  0  0  0  0
    6.1350    3.8100    0.0000 H   0  0  0  0  0  0  0  0  0  0  0  0
    9.0622   -0.1200    0.0000 H   0  0  0  0  0  0  0  0  0  0  0  0
    7.6592    2.3100    0.0000 H   0  0  0  0  0  0  0  0  0  0  0  0
   10.4651    0.6900    0.0000 H   0  0  0  0  0  0  0  0  0  0  0  0
    9.0622    3.1200    0.0000 H   0  0  0  0  0  0  0  0  0  0  0  0
   12.1972    2.3100    0.0000 H   0  0  0  0  0  0  0  0  0  0  0  0
  1  6  2  0  0  0  0
  1  7  2  0  0  0  0
  1 11  1  0  0  0  0
  1 12  1  0  0  0  0
  2 26  1  0  0  0  0
  3 26  1  0  0  0  0
  4 26  1  0  0  0  0
  5 14  1  0  0  0  0
  5 21  1  0  0  0  0
  8 23  1  0  0  0  0
  8 27  1  0  0  0  0
  9 33  1  0  0  0  0
  9 51  1  0  0  0  0
 10 33  2  0  0  0  0
 11 13  1  0  0  0  0
 11 34  1  0  0  0  0
 12 15  2  0  0  0  0
 12 16  1  0  0  0  0
 13 14  1  0  0  0  0
 13 20  2  0  0  0  0
 14 22  2  0  0  0  0
 15 18  1  0  0  0  0
 15 35  1  0  0  0  0
 16 19  2  0  0  0  0
 16 36  1  0  0  0  0
 17 18  2  0  0  0  0
 17 19  1  0  0  0  0
 17 26  1  0  0  0  0
 18 37  1  0  0  0  0
 19 38  1  0  0  0  0
 20 24  1  0  0  0  0
 20 39  1  0  0  0  0
 21 23  1  0  0  0  0
 21 40  1  0  0  0  0
 21 41  1  0  0  0  0
 22 25  1  0  0  0  0
 22 42  1  0  0  0  0
 23 43  1  0  0  0  0
 23 44  1  0  0  0  0
 24 25  2  0  0  0  0
 24 45  1  0  0  0  0
 25 46  1  0  0  0  0
 27 28  2  0  0  0  0
 27 29  1  0  0  0  0
 28 31  1  0  0  0  0
 28 47  1  0  0  0  0
 29 32  2  0  0  0  0
 29 48  1  0  0  0  0
 30 31  2  0  0  0  0
 30 32  1  0  0  0  0
 30 33  1  0  0  0  0
 31 49  1  0  0  0  0
 32 50  1  0  0  0  0
M  END
> <PUBCHEM_COMPOUND_CID>
68690977

> <PUBCHEM_COMPOUND_CANONICALIZED>
1

> <PUBCHEM_CACTVS_COMPLEXITY>
725

> <PUBCHEM_CACTVS_HBOND_ACCEPTOR>
10

> <PUBCHEM_CACTVS_HBOND_DONOR>
2

> <PUBCHEM_CACTVS_ROTATABLE_BOND>
9

> <PUBCHEM_CACTVS_SUBSKEYS>
AAADceB6OYBAAAAAAAAAAAAAAAAAAAAAAAAwYMAAAAAAAAABUAAAHwQQSAAADAyh2BIwz4BABgKIAiTSSHDCCBAkIgAIiBkHbMgPJjKEtZuDeSDk0BEK+YeY7CzOMAAAAAAAEABgAAAAAAAgAAAAAAAAAA==

> <PUBCHEM_IUPAC_OPENEYE_NAME>
4-[2-[2-[[4-(trifluoromethyl)phenyl]sulfonylamino]phenoxy]ethoxy]benzoic acid

> <PUBCHEM_IUPAC_CAS_NAME>
4-[2-[2-[[4-(trifluoromethyl)phenyl]sulfonylamino]phenoxy]ethoxy]benzoic acid

> <PUBCHEM_IUPAC_NAME>
4-[2-[2-[[4-(trifluoromethyl)phenyl]sulfonylamino]phenoxy]ethoxy]benzoic acid

> <PUBCHEM_IUPAC_SYSTEMATIC_NAME>
4-[2-[2-[[4-(trifluoromethyl)phenyl]sulfonylamino]phenoxy]ethoxy]benzoic acid

> <PUBCHEM_IUPAC_TRADITIONAL_NAME>
4-[2-[2-[[4-(trifluoromethyl)phenyl]sulfonylamino]phenoxy]ethoxy]benzoic acid

> <PUBCHEM_IUPAC_INCHI>
InChI=1S/C22H18F3NO6S/c23-22(24,25)16-7-11-18(12-8-16)33(29,30)26-19-3-1-2-4-20(19)32-14-13-31-17-9-5-15(6-10-17)21(27)28/h1-12,26H,13-14H2,(H,27,28)

> <PUBCHEM_IUPAC_INCHIKEY>
WHNMETGQFQMSOR-UHFFFAOYSA-N

> <PUBCHEM_XLOGP3>
4.3

> <PUBCHEM_EXACT_MASS>
481.080693

> <PUBCHEM_MOLECULAR_FORMULA>
C22H18F3NO6S

> <PUBCHEM_MOLECULAR_WEIGHT>
481.44163

> <PUBCHEM_OPENEYE_CAN_SMILES>
C1=CC=C(C(=C1)NS(=O)(=O)C2=CC=C(C=C2)C(F)(F)F)OCCOC3=CC=C(C=C3)C(=O)O

> <PUBCHEM_OPENEYE_ISO_SMILES>
C1=CC=C(C(=C1)NS(=O)(=O)C2=CC=C(C=C2)C(F)(F)F)OCCOC3=CC=C(C=C3)C(=O)O

> <PUBCHEM_CACTVS_TPSA>
110

> <PUBCHEM_MONOISOTOPIC_WEIGHT>
481.080693

> <PUBCHEM_TOTAL_CHARGE>
0

> <PUBCHEM_HEAVY_ATOM_COUNT>
33

> <PUBCHEM_ATOM_DEF_STEREO_COUNT>
0

> <PUBCHEM_ATOM_UDEF_STEREO_COUNT>
0

> <PUBCHEM_BOND_DEF_STEREO_COUNT>
0

> <PUBCHEM_BOND_UDEF_STEREO_COUNT>
0

> <PUBCHEM_ISOTOPIC_ATOM_COUNT>
0

> <PUBCHEM_COMPONENT_COUNT>
1

> <PUBCHEM_CACTVS_TAUTO_COUNT>
1

> <PUBCHEM_COORDINATE_TYPE>
1
5
255

> <PUBCHEM_BONDANNOTATIONS>
12  15  8
12  16  8
13  14  8
13  20  8
14  22  8
15  18  8
16  19  8
17  18  8
17  19  8
20  24  8
22  25  8
24  25  8
27  28  8
27  29  8
28  31  8
29  32  8
30  31  8
30  32  8

$$$$
68694170
  -OEChem-12041212372D

 25 27  0     0  0  0  0  0  0999 V2000
    4.5274    1.1618    0.0000 O   0  0  0  0  0  0  0  0  0  0  0  0
    5.0274   -0.3771    0.0000 C   0  0  0  0  0  0  0  0  0  0  0  0
    4.0274   -0.3771    0.0000 C   0  0  0  0  0  0  0  0  0  0  0  0
    5.3364    0.5740    0.0000 C   0  0  0  0  0  0  0  0  0  0  0  0
    3.7183    0.5740    0.0000 C   0  0  0  0  0  0  0  0  0  0  0  0
    5.7123   -1.1618    0.0000 C   0  0  0  0  0  0  0  0  0  0  0  0
    6.3518    0.8063    0.0000 C   0  0  0  0  0  0  0  0  0  0  0  0
    3.3424   -1.1618    0.0000 C   0  0  0  0  0  0  0  0  0  0  0  0
    7.0547    0.0376    0.0000 C   0  0  0  0  0  0  0  0  0  0  0  0
    2.7029    0.8063    0.0000 C   0  0  0  0  0  0  0  0  0  0  0  0
    6.7328   -0.9531    0.0000 C   0  0  0  0  0  0  0  0  0  0  0  0
    2.3219   -0.9531    0.0000 C   0  0  0  0  0  0  0  0  0  0  0  0
    2.0000    0.0376    0.0000 C   0  0  0  0  0  0  0  0  0  0  0  0
    8.0321    0.2492    0.0000 C   0  0  0  0  0  0  0  0  0  0  0  0
    8.7040   -0.4913    0.0000 C   0  0  0  0  0  0  0  0  0  0  0  0
    5.5139   -1.7492    0.0000 H   0  0  0  0  0  0  0  0  0  0  0  0
    6.5365    1.3981    0.0000 H   0  0  0  0  0  0  0  0  0  0  0  0
    3.5408   -1.7492    0.0000 H   0  0  0  0  0  0  0  0  0  0  0  0
    2.5182    1.3981    0.0000 H   0  0  0  0  0  0  0  0  0  0  0  0
    7.1459   -1.4154    0.0000 H   0  0  0  0  0  0  0  0  0  0  0  0
    1.9088   -1.4154    0.0000 H   0  0  0  0  0  0  0  0  0  0  0  0
    1.3940    0.1688    0.0000 H   0  0  0  0  0  0  0  0  0  0  0  0
    8.2214    0.8396    0.0000 H   0  0  0  0  0  0  0  0  0  0  0  0
    8.5147   -1.0817    0.0000 H   0  0  0  0  0  0  0  0  0  0  0  0
    9.3100   -0.3601    0.0000 H   0  0  0  0  0  0  0  0  0  0  0  0
  1  4  1  0  0  0  0
  1  5  1  0  0  0  0
  2  3  1  0  0  0  0
  2  4  2  0  0  0  0
  2  6  1  0  0  0  0
  3  5  1  0  0  0  0
  3  8  2  0  0  0  0
  4  7  1  0  0  0  0
  5 10  2  0  0  0  0
  6 11  2  0  0  0  0
  6 16  1  0  0  0  0
  7  9  2  0  0  0  0
  7 17  1  0  0  0  0
  8 12  1  0  0  0  0
  8 18  1  0  0  0  0
  9 11  1  0  0  0  0
  9 14  1  0  0  0  0
 10 13  1  0  0  0  0
 10 19  1  0  0  0  0
 11 20  1  0  0  0  0
 12 13  2  0  0  0  0
 12 21  1  0  0  0  0
 13 22  1  0  0  0  0
 14 15  2  0  0  0  0
 14 23  1  0  0  0  0
 15 24  1  0  0  0  0
 15 25  1  0  0  0  0
M  END
> <PUBCHEM_COMPOUND_CID>
68694170

> <PUBCHEM_COMPOUND_CANONICALIZED>
1

> <PUBCHEM_CACTVS_COMPLEXITY>
248

> <PUBCHEM_CACTVS_HBOND_ACCEPTOR>
1

> <PUBCHEM_CACTVS_HBOND_DONOR>
0

> <PUBCHEM_CACTVS_ROTATABLE_BOND>
1

> <PUBCHEM_CACTVS_SUBSKEYS>
AAADccBwIAAAAAAAAAAAAAAAAAAAASAAAAAwYAAAAAAAAEgB/AAAGgAAAAAADASAmAAwBsAABECIAqBSAAACCAAkIAAIiAEGCMgMJjKENRqCOSCkwBEIqYeIyPCOwAABAAAIAACAAAIAABAAAAAAAAAAAA==

> <PUBCHEM_IUPAC_OPENEYE_NAME>
3-vinyldibenzofuran

> <PUBCHEM_IUPAC_CAS_NAME>
3-ethenyldibenzofuran

> <PUBCHEM_IUPAC_NAME>
3-ethenyldibenzofuran

> <PUBCHEM_IUPAC_SYSTEMATIC_NAME>
3-ethenyldibenzofuran

> <PUBCHEM_IUPAC_TRADITIONAL_NAME>
3-vinyldibenzofuran

> <PUBCHEM_IUPAC_INCHI>
InChI=1S/C14H10O/c1-2-10-7-8-12-11-5-3-4-6-13(11)15-14(12)9-10/h2-9H,1H2

> <PUBCHEM_IUPAC_INCHIKEY>
MDWLVMCFQKCHRF-UHFFFAOYSA-N

> <PUBCHEM_XLOGP3>
4.9

> <PUBCHEM_EXACT_MASS>
194.073165

> <PUBCHEM_MOLECULAR_FORMULA>
C14H10O

> <PUBCHEM_MOLECULAR_WEIGHT>
194.2286

> <PUBCHEM_OPENEYE_CAN_SMILES>
C=CC1=CC2=C(C=C1)C3=CC=CC=C3O2

> <PUBCHEM_OPENEYE_ISO_SMILES>
C=CC1=CC2=C(C=C1)C3=CC=CC=C3O2

> <PUBCHEM_CACTVS_TPSA>
13.1

> <PUBCHEM_MONOISOTOPIC_WEIGHT>
194.073165

> <PUBCHEM_TOTAL_CHARGE>
0

> <PUBCHEM_HEAVY_ATOM_COUNT>
15

> <PUBCHEM_ATOM_DEF_STEREO_COUNT>
0

> <PUBCHEM_ATOM_UDEF_STEREO_COUNT>
0

> <PUBCHEM_BOND_DEF_STEREO_COUNT>
0

> <PUBCHEM_BOND_UDEF_STEREO_COUNT>
0

> <PUBCHEM_ISOTOPIC_ATOM_COUNT>
0

> <PUBCHEM_COMPONENT_COUNT>
1

> <PUBCHEM_CACTVS_TAUTO_COUNT>
1

> <PUBCHEM_COORDINATE_TYPE>
1
5
255

> <PUBCHEM_BONDANNOTATIONS>
1  4  8
1  5  8
10  13  8
12  13  8
2  3  8
2  4  8
2  6  8
3  5  8
3  8  8
4  7  8
5  10  8
6  11  8
7  9  8
8  12  8
9  11  8

$$$$
68697042
  -OEChem-12041212372D

 22 23  0     0  0  0  0  0  0999 V2000
    6.3961    0.0185    0.0000 Cl  0  0  0  0  0  0  0  0  0  0  0  0
    2.0000   -1.4573    0.0000 O   0  0  0  0  0  0  0  0  0  0  0  0
    3.7320    0.5427    0.0000 C   0  0  0  0  0  0  0  0  0  0  0  0
    2.8660    0.0427    0.0000 C   0  0  0  0  0  0  0  0  0  0  0  0
    3.7320    1.5427    0.0000 C   0  0  0  0  0  0  0  0  0  0  0  0
    4.6260    0.0080    0.0000 C   0  0  0  0  0  0  0  0  0  0  0  0
    2.0000    0.5427    0.0000 C   0  0  0  0  0  0  0  0  0  0  0  0
    2.8660    2.0427    0.0000 C   0  0  0  0  0  0  0  0  0  0  0  0
    2.8660   -0.9573    0.0000 C   0  0  0  0  0  0  0  0  0  0  0  0
    4.6260    2.0773    0.0000 C   0  0  0  0  0  0  0  0  0  0  0  0
    2.0000    1.5427    0.0000 C   0  0  0  0  0  0  0  0  0  0  0  0
    5.5321    0.5219    0.0000 C   0  0  0  0  0  0  0  0  0  0  0  0
    5.5321    1.5635    0.0000 C   0  0  0  0  0  0  0  0  0  0  0  0
    4.6188   -0.6120    0.0000 H   0  0  0  0  0  0  0  0  0  0  0  0
    1.4631    0.2327    0.0000 H   0  0  0  0  0  0  0  0  0  0  0  0
    2.8660    2.6627    0.0000 H   0  0  0  0  0  0  0  0  0  0  0  0
    3.0781   -1.5399    0.0000 H   0  0  0  0  0  0  0  0  0  0  0  0
    3.4766   -0.8497    0.0000 H   0  0  0  0  0  0  0  0  0  0  0  0
    4.6188    2.6973    0.0000 H   0  0  0  0  0  0  0  0  0  0  0  0
    1.4631    1.8527    0.0000 H   0  0  0  0  0  0  0  0  0  0  0  0
    6.0678    1.8756    0.0000 H   0  0  0  0  0  0  0  0  0  0  0  0
    2.0000   -2.0773    0.0000 H   0  0  0  0  0  0  0  0  0  0  0  0
  1 12  1  0  0  0  0
  2  9  1  0  0  0  0
  2 22  1  0  0  0  0
  3  4  1  0  0  0  0
  3  5  2  0  0  0  0
  3  6  1  0  0  0  0
  4  7  2  0  0  0  0
  4  9  1  0  0  0  0
  5  8  1  0  0  0  0
  5 10  1  0  0  0  0
  6 12  2  0  0  0  0
  6 14  1  0  0  0  0
  7 11  1  0  0  0  0
  7 15  1  0  0  0  0
  8 11  2  0  0  0  0
  8 16  1  0  0  0  0
  9 17  1  0  0  0  0
  9 18  1  0  0  0  0
 10 13  2  0  0  0  0
 10 19  1  0  0  0  0
 11 20  1  0  0  0  0
 12 13  1  0  0  0  0
 13 21  1  0  0  0  0
M  END
> <PUBCHEM_COMPOUND_CID>
68697042

> <PUBCHEM_COMPOUND_CANONICALIZED>
1

> <PUBCHEM_CACTVS_COMPLEXITY>
172

> <PUBCHEM_CACTVS_HBOND_ACCEPTOR>
1

> <PUBCHEM_CACTVS_HBOND_DONOR>
1

> <PUBCHEM_CACTVS_ROTATABLE_BOND>
1

> <PUBCHEM_CACTVS_SUBSKEYS>
AAADccBwIAAEAAAAAAAAAAAAAAAAAAAAAAAwYAAAAAAAAADBUAAAGgIACAAADAKgmCIwAMAAAgCAAiBCAAACAAAgBQAIiAAACogINiKBExCAcAAkwAEImAeAwOAOhAACIAAQAAAIAARAACAAAAAAAAAAAA==

> <PUBCHEM_IUPAC_OPENEYE_NAME>
(7-chloro-1-naphthyl)methanol

> <PUBCHEM_IUPAC_CAS_NAME>
(7-chloro-1-naphthalenyl)methanol

> <PUBCHEM_IUPAC_NAME>
(7-chloronaphthalen-1-yl)methanol

> <PUBCHEM_IUPAC_SYSTEMATIC_NAME>
(7-chloranylnaphthalen-1-yl)methanol

> <PUBCHEM_IUPAC_TRADITIONAL_NAME>
(7-chloro-1-naphthyl)methanol

> <PUBCHEM_IUPAC_INCHI>
InChI=1S/C11H9ClO/c12-10-5-4-8-2-1-3-9(7-13)11(8)6-10/h1-6,13H,7H2

> <PUBCHEM_IUPAC_INCHIKEY>
GCJCYKXJAGWMSJ-UHFFFAOYSA-N

> <PUBCHEM_XLOGP3>
3

> <PUBCHEM_EXACT_MASS>
192.034193

> <PUBCHEM_MOLECULAR_FORMULA>
C11H9ClO

> <PUBCHEM_MOLECULAR_WEIGHT>
192.64156

> <PUBCHEM_OPENEYE_CAN_SMILES>
C1=CC2=C(C=C(C=C2)Cl)C(=C1)CO

> <PUBCHEM_OPENEYE_ISO_SMILES>
C1=CC2=C(C=C(C=C2)Cl)C(=C1)CO

> <PUBCHEM_CACTVS_TPSA>
20.2

> <PUBCHEM_MONOISOTOPIC_WEIGHT>
192.034193

> <PUBCHEM_TOTAL_CHARGE>
0

> <PUBCHEM_HEAVY_ATOM_COUNT>
13

> <PUBCHEM_ATOM_DEF_STEREO_COUNT>
0

> <PUBCHEM_ATOM_UDEF_STEREO_COUNT>
0

> <PUBCHEM_BOND_DEF_STEREO_COUNT>
0

> <PUBCHEM_BOND_UDEF_STEREO_COUNT>
0

> <PUBCHEM_ISOTOPIC_ATOM_COUNT>
0

> <PUBCHEM_COMPONENT_COUNT>
1

> <PUBCHEM_CACTVS_TAUTO_COUNT>
1

> <PUBCHEM_COORDINATE_TYPE>
1
5
255

> <PUBCHEM_BONDANNOTATIONS>
10  13  8
12  13  8
3  4  8
3  5  8
3  6  8
4  7  8
5  10  8
5  8  8
6  12  8
7  11  8
8  11  8

$$$$
