26434546
  -OEChem-06111304202D

 29 31  0     0  0  0  0  0  0999 V2000
    3.8660   -0.6786    0.0000 N   0  3  0  0  0  0  0  0  0  0  0  0
    8.2764    0.6262    0.0000 N   0  0  0  0  0  0  0  0  0  0  0  0
    3.0000   -0.1786    0.0000 C   0  0  0  0  0  0  0  0  0  0  0  0
    2.5000    0.6875    0.0000 C   0  0  0  0  0  0  0  0  0  0  0  0
    2.0000   -0.1786    0.0000 C   0  0  0  0  0  0  0  0  0  0  0  0
    4.7320   -1.1786    0.0000 C   0  0  0  0  0  0  0  0  0  0  0  0
    5.5981   -0.6786    0.0000 C   0  0  0  0  0  0  0  0  0  0  0  0
    6.4641   -1.1786    0.0000 C   0  0  0  0  0  0  0  0  0  0  0  0
    5.5981    0.3214    0.0000 C   0  0  0  0  0  0  0  0  0  0  0  0
    7.3301   -0.6786    0.0000 C   0  0  0  0  0  0  0  0  0  0  0  0
    7.3301    0.3214    0.0000 C   0  0  0  0  0  0  0  0  0  0  0  0
    6.4641    0.8214    0.0000 C   0  0  0  0  0  0  0  0  0  0  0  0
    8.2764   -0.9833    0.0000 C   0  0  0  0  0  0  0  0  0  0  0  0
    8.8600   -0.1786    0.0000 C   0  0  0  0  0  0  0  0  0  0  0  0
    2.8395   -0.7774    0.0000 H   0  0  0  0  0  0  0  0  0  0  0  0
    2.9750    1.0860    0.0000 H   0  0  0  0  0  0  0  0  0  0  0  0
    2.0250    1.0860    0.0000 H   0  0  0  0  0  0  0  0  0  0  0  0
    1.4174    0.0335    0.0000 H   0  0  0  0  0  0  0  0  0  0  0  0
    1.8923   -0.7891    0.0000 H   0  0  0  0  0  0  0  0  0  0  0  0
    3.5560   -1.2155    0.0000 H   0  0  0  0  0  0  0  0  0  0  0  0
    4.1760   -0.1416    0.0000 H   0  0  0  0  0  0  0  0  0  0  0  0
    4.3335   -1.6535    0.0000 H   0  0  0  0  0  0  0  0  0  0  0  0
    5.1306   -1.6535    0.0000 H   0  0  0  0  0  0  0  0  0  0  0  0
    6.4641   -1.7986    0.0000 H   0  0  0  0  0  0  0  0  0  0  0  0
    5.0611    0.6314    0.0000 H   0  0  0  0  0  0  0  0  0  0  0  0
    6.4641    1.4414    0.0000 H   0  0  0  0  0  0  0  0  0  0  0  0
    8.4690   -1.5726    0.0000 H   0  0  0  0  0  0  0  0  0  0  0  0
    8.4690    1.2155    0.0000 H   0  0  0  0  0  0  0  0  0  0  0  0
    9.4800   -0.1786    0.0000 H   0  0  0  0  0  0  0  0  0  0  0  0
  1  3  1  0  0  0  0
  1  6  1  0  0  0  0
  1 20  1  0  0  0  0
  1 21  1  0  0  0  0
  2 11  1  0  0  0  0
  2 14  1  0  0  0  0
  2 28  1  0  0  0  0
  3  4  1  0  0  0  0
  3  5  1  0  0  0  0
  3 15  1  0  0  0  0
  4  5  1  0  0  0  0
  4 16  1  0  0  0  0
  4 17  1  0  0  0  0
  5 18  1  0  0  0  0
  5 19  1  0  0  0  0
  6  7  1  0  0  0  0
  6 22  1  0  0  0  0
  6 23  1  0  0  0  0
  7  8  2  0  0  0  0
  7  9  1  0  0  0  0
  8 10  1  0  0  0  0
  8 24  1  0  0  0  0
  9 12  2  0  0  0  0
  9 25  1  0  0  0  0
 10 11  2  0  0  0  0
 10 13  1  0  0  0  0
 11 12  1  0  0  0  0
 12 26  1  0  0  0  0
 13 14  2  0  0  0  0
 13 27  1  0  0  0  0
 14 29  1  0  0  0  0
M  CHG  1   1   1
M  END
> <PUBCHEM_COMPOUND_CID>
26434546

> <PUBCHEM_COMPOUND_CANONICALIZED>
1

> <PUBCHEM_CACTVS_COMPLEXITY>
201

> <PUBCHEM_CACTVS_HBOND_ACCEPTOR>
0

> <PUBCHEM_CACTVS_HBOND_DONOR>
2

> <PUBCHEM_CACTVS_ROTATABLE_BOND>
3

> <PUBCHEM_CACTVS_SUBSKEYS>
AAADccBzAAAAAAAAAAAAAAAAGAAAAWAAAAAwAAAAAAAAAFgB8AAAHAAQAAAADCjBHgQ8wPLJkACgAzRnRACCgCAxAiAI2aA4ZJgIIOLAkZGEIAhgkADIyAcQgMAOCAACAAACAAAQAAQAAAQAAAAAAAAAAA==

> <PUBCHEM_IUPAC_OPENEYE_NAME>
cyclopropyl(1H-indol-5-ylmethyl)ammonium

> <PUBCHEM_IUPAC_CAS_NAME>
cyclopropyl(1H-indol-5-ylmethyl)ammonium

> <PUBCHEM_IUPAC_NAME>
cyclopropyl(1H-indol-5-ylmethyl)azanium

> <PUBCHEM_IUPAC_SYSTEMATIC_NAME>
cyclopropyl(1H-indol-5-ylmethyl)azanium

> <PUBCHEM_IUPAC_TRADITIONAL_NAME>
cyclopropyl(1H-indol-5-ylmethyl)ammonium

> <PUBCHEM_IUPAC_INCHI>
InChI=1S/C12H14N2/c1-4-12-10(5-6-13-12)7-9(1)8-14-11-2-3-11/h1,4-7,11,13-14H,2-3,8H2/p+1

> <PUBCHEM_IUPAC_INCHIKEY>
TVNKCYWCLOJUFV-UHFFFAOYSA-O

> <PUBCHEM_XLOGP3>
2.2

> <PUBCHEM_EXACT_MASS>
187.123523

> <PUBCHEM_MOLECULAR_FORMULA>
C12H15N2+

> <PUBCHEM_MOLECULAR_WEIGHT>
187.2609

> <PUBCHEM_OPENEYE_CAN_SMILES>
C1CC1[NH2+]CC2=CC3=C(C=C2)NC=C3

> <PUBCHEM_OPENEYE_ISO_SMILES>
C1CC1[NH2+]CC2=CC3=C(C=C2)NC=C3

> <PUBCHEM_CACTVS_TPSA>
32.4

> <PUBCHEM_MONOISOTOPIC_WEIGHT>
187.123523

> <PUBCHEM_TOTAL_CHARGE>
1

> <PUBCHEM_HEAVY_ATOM_COUNT>
14

> <PUBCHEM_ATOM_DEF_STEREO_COUNT>
0

> <PUBCHEM_ATOM_UDEF_STEREO_COUNT>
0

> <PUBCHEM_BOND_DEF_STEREO_COUNT>
0

> <PUBCHEM_BOND_UDEF_STEREO_COUNT>
0

> <PUBCHEM_ISOTOPIC_ATOM_COUNT>
0

> <PUBCHEM_COMPONENT_COUNT>
1

> <PUBCHEM_CACTVS_TAUTO_COUNT>
1

> <PUBCHEM_COORDINATE_TYPE>
1
5
255

> <PUBCHEM_BONDANNOTATIONS>
10  11  8
10  13  8
11  12  8
13  14  8
2  11  8
2  14  8
7  8  8
7  9  8
8  10  8
9  12  8

$$$$
