39088096
  -OEChem-03221309332D

 26 27  0     0  0  0  0  0  0999 V2000
    2.0000   -0.9330    0.0000 I   0  0  0  0  0  0  0  0  0  0  0  0
    5.4641    0.0670    0.0000 O   0  0  0  0  0  0  0  0  0  0  0  0
    3.7321    0.0670    0.0000 N   0  0  0  0  0  0  0  0  0  0  0  0
    5.4641    2.0670    0.0000 C   0  0  0  0  0  0  0  0  0  0  0  0
    6.4641    2.0670    0.0000 C   0  0  0  0  0  0  0  0  0  0  0  0
    5.9641    2.9330    0.0000 C   0  0  0  0  0  0  0  0  0  0  0  0
    4.5981    1.5670    0.0000 C   0  0  0  0  0  0  0  0  0  0  0  0
    4.5981    0.5670    0.0000 C   0  0  0  0  0  0  0  0  0  0  0  0
    3.7321   -0.9330    0.0000 C   0  0  0  0  0  0  0  0  0  0  0  0
    2.8660   -1.4330    0.0000 C   0  0  0  0  0  0  0  0  0  0  0  0
    4.5981   -1.4330    0.0000 C   0  0  0  0  0  0  0  0  0  0  0  0
    2.8660   -2.4330    0.0000 C   0  0  0  0  0  0  0  0  0  0  0  0
    4.5981   -2.4330    0.0000 C   0  0  0  0  0  0  0  0  0  0  0  0
    3.7321   -2.9330    0.0000 C   0  0  0  0  0  0  0  0  0  0  0  0
    5.6246    1.4681    0.0000 H   0  0  0  0  0  0  0  0  0  0  0  0
    6.5718    1.4564    0.0000 H   0  0  0  0  0  0  0  0  0  0  0  0
    7.0467    2.2790    0.0000 H   0  0  0  0  0  0  0  0  0  0  0  0
    6.4391    3.3315    0.0000 H   0  0  0  0  0  0  0  0  0  0  0  0
    5.4892    3.3315    0.0000 H   0  0  0  0  0  0  0  0  0  0  0  0
    4.3860    2.1496    0.0000 H   0  0  0  0  0  0  0  0  0  0  0  0
    3.9875    1.4593    0.0000 H   0  0  0  0  0  0  0  0  0  0  0  0
    3.1951    0.3770    0.0000 H   0  0  0  0  0  0  0  0  0  0  0  0
    5.1350   -1.1230    0.0000 H   0  0  0  0  0  0  0  0  0  0  0  0
    2.3291   -2.7430    0.0000 H   0  0  0  0  0  0  0  0  0  0  0  0
    5.1350   -2.7430    0.0000 H   0  0  0  0  0  0  0  0  0  0  0  0
    3.7321   -3.5530    0.0000 H   0  0  0  0  0  0  0  0  0  0  0  0
  1 10  1  0  0  0  0
  2  8  2  0  0  0  0
  3  8  1  0  0  0  0
  3  9  1  0  0  0  0
  3 22  1  0  0  0  0
  4  5  1  0  0  0  0
  4  6  1  0  0  0  0
  4  7  1  0  0  0  0
  4 15  1  0  0  0  0
  5  6  1  0  0  0  0
  5 16  1  0  0  0  0
  5 17  1  0  0  0  0
  6 18  1  0  0  0  0
  6 19  1  0  0  0  0
  7  8  1  0  0  0  0
  7 20  1  0  0  0  0
  7 21  1  0  0  0  0
  9 10  1  0  0  0  0
  9 11  2  0  0  0  0
 10 12  2  0  0  0  0
 11 13  1  0  0  0  0
 11 23  1  0  0  0  0
 12 14  1  0  0  0  0
 12 24  1  0  0  0  0
 13 14  2  0  0  0  0
 13 25  1  0  0  0  0
 14 26  1  0  0  0  0
M  END
> <PUBCHEM_COMPOUND_CID>
39088096

> <PUBCHEM_COMPOUND_CANONICALIZED>
1

> <PUBCHEM_CACTVS_COMPLEXITY>
215

> <PUBCHEM_CACTVS_HBOND_ACCEPTOR>
1

> <PUBCHEM_CACTVS_HBOND_DONOR>
1

> <PUBCHEM_CACTVS_ROTATABLE_BOND>
3

> <PUBCHEM_CACTVS_SUBSKEYS>
AAADccByIAAAAgAAAAAAAAAAGAAAAAAAAAAwAAAAAAAAAAABAAAAHgAwAAAADQiDkAAwwILAAACIACVSUACCAAAhAgAIiAEAZIgIIDLAkZGEIAhglADIyAcYAAAIAAAAAAAAAAAAAAAAAAAAAAAAAAAAAA==

> <PUBCHEM_IUPAC_OPENEYE_NAME>
2-cyclopropyl-N-(2-iodophenyl)acetamide

> <PUBCHEM_IUPAC_CAS_NAME>
2-cyclopropyl-N-(2-iodophenyl)acetamide

> <PUBCHEM_IUPAC_NAME>
2-cyclopropyl-N-(2-iodophenyl)acetamide

> <PUBCHEM_IUPAC_SYSTEMATIC_NAME>
2-cyclopropyl-N-(2-iodanylphenyl)ethanamide

> <PUBCHEM_IUPAC_TRADITIONAL_NAME>
2-cyclopropyl-N-(2-iodophenyl)acetamide

> <PUBCHEM_IUPAC_INCHI>
InChI=1S/C11H12INO/c12-9-3-1-2-4-10(9)13-11(14)7-8-5-6-8/h1-4,8H,5-7H2,(H,13,14)

> <PUBCHEM_IUPAC_INCHIKEY>
BCAYIWJTOVLJBG-UHFFFAOYSA-N

> <PUBCHEM_XLOGP3>
2.6

> <PUBCHEM_EXACT_MASS>
300.996362

> <PUBCHEM_MOLECULAR_FORMULA>
C11H12INO

> <PUBCHEM_MOLECULAR_WEIGHT>
301.12355

> <PUBCHEM_OPENEYE_CAN_SMILES>
C1CC1CC(=O)NC2=CC=CC=C2I

> <PUBCHEM_OPENEYE_ISO_SMILES>
C1CC1CC(=O)NC2=CC=CC=C2I

> <PUBCHEM_CACTVS_TPSA>
29.1

> <PUBCHEM_MONOISOTOPIC_WEIGHT>
300.996362

> <PUBCHEM_TOTAL_CHARGE>
0

> <PUBCHEM_HEAVY_ATOM_COUNT>
14

> <PUBCHEM_ATOM_DEF_STEREO_COUNT>
0

> <PUBCHEM_ATOM_UDEF_STEREO_COUNT>
0

> <PUBCHEM_BOND_DEF_STEREO_COUNT>
0

> <PUBCHEM_BOND_UDEF_STEREO_COUNT>
0

> <PUBCHEM_ISOTOPIC_ATOM_COUNT>
0

> <PUBCHEM_COMPONENT_COUNT>
1

> <PUBCHEM_CACTVS_TAUTO_COUNT>
2

> <PUBCHEM_COORDINATE_TYPE>
1
5
255

> <PUBCHEM_BONDANNOTATIONS>
10  12  8
11  13  8
12  14  8
13  14  8
9  10  8
9  11  8

$$$$
