46425160
  -OEChem-11301217562D

 42 43  0     0  0  0  0  0  0999 V2000
    2.0000    1.0000    0.0000 F   0  0  0  0  0  0  0  0  0  0  0  0
    3.3660    0.6340    0.0000 F   0  0  0  0  0  0  0  0  0  0  0  0
    2.3660    2.3660    0.0000 F   0  0  0  0  0  0  0  0  0  0  0  0
    4.5981    5.5000    0.0000 F   0  0  0  0  0  0  0  0  0  0  0  0
    5.5981    4.5000    0.0000 F   0  0  0  0  0  0  0  0  0  0  0  0
    3.5981    4.5000    0.0000 F   0  0  0  0  0  0  0  0  0  0  0  0
    8.0622   -2.5000    0.0000 O   0  0  0  0  0  0  0  0  0  0  0  0
    7.1962    2.0000    0.0000 O   0  0  0  0  0  0  0  0  0  0  0  0
    9.7942   -4.5000    0.0000 O   0  0  0  0  0  0  0  0  0  0  0  0
    8.0622   -4.5000    0.0000 O   0  0  0  0  0  0  0  0  0  0  0  0
    6.3301    0.5000    0.0000 N   0  0  0  0  0  0  0  0  0  0  0  0
    5.4641    2.0000    0.0000 C   0  0  0  0  0  0  0  0  0  0  0  0
    3.7320    2.0000    0.0000 C   0  0  0  0  0  0  0  0  0  0  0  0
    4.5981    3.5000    0.0000 C   0  0  0  0  0  0  0  0  0  0  0  0
    5.4641    3.0000    0.0000 C   0  0  0  0  0  0  0  0  0  0  0  0
    4.5981    1.5000    0.0000 C   0  0  0  0  0  0  0  0  0  0  0  0
    3.7320    3.0000    0.0000 C   0  0  0  0  0  0  0  0  0  0  0  0
    6.3301    1.5000    0.0000 C   0  0  0  0  0  0  0  0  0  0  0  0
    7.1962    0.0000    0.0000 C   0  0  0  0  0  0  0  0  0  0  0  0
    2.8660    1.5000    0.0000 C   0  0  0  0  0  0  0  0  0  0  0  0
    4.5981    4.5000    0.0000 C   0  0  0  0  0  0  0  0  0  0  0  0
    7.1962   -1.0000    0.0000 C   0  0  0  0  0  0  0  0  0  0  0  0
    8.0622   -1.5000    0.0000 C   0  0  0  0  0  0  0  0  0  0  0  0
    8.0622    0.5000    0.0000 C   0  0  0  0  0  0  0  0  0  0  0  0
    8.9282   -1.0000    0.0000 C   0  0  0  0  0  0  0  0  0  0  0  0
    8.9282    0.0000    0.0000 C   0  0  0  0  0  0  0  0  0  0  0  0
    8.9282   -3.0000    0.0000 C   0  0  0  0  0  0  0  0  0  0  0  0
    8.9282   -4.0000    0.0000 C   0  0  0  0  0  0  0  0  0  0  0  0
    9.7942   -5.5000    0.0000 C   0  0  0  0  0  0  0  0  0  0  0  0
    6.0010    3.3100    0.0000 H   0  0  0  0  0  0  0  0  0  0  0  0
    4.5981    0.8800    0.0000 H   0  0  0  0  0  0  0  0  0  0  0  0
    3.1951    3.3100    0.0000 H   0  0  0  0  0  0  0  0  0  0  0  0
    5.7932    0.1900    0.0000 H   0  0  0  0  0  0  0  0  0  0  0  0
    6.6592   -1.3100    0.0000 H   0  0  0  0  0  0  0  0  0  0  0  0
    8.0622    1.1200    0.0000 H   0  0  0  0  0  0  0  0  0  0  0  0
    9.4651   -1.3100    0.0000 H   0  0  0  0  0  0  0  0  0  0  0  0
    9.4651    0.3100    0.0000 H   0  0  0  0  0  0  0  0  0  0  0  0
    9.5388   -3.1077    0.0000 H   0  0  0  0  0  0  0  0  0  0  0  0
    9.1403   -2.4174    0.0000 H   0  0  0  0  0  0  0  0  0  0  0  0
    9.1742   -5.5000    0.0000 H   0  0  0  0  0  0  0  0  0  0  0  0
    9.7942   -6.1200    0.0000 H   0  0  0  0  0  0  0  0  0  0  0  0
   10.4142   -5.5000    0.0000 H   0  0  0  0  0  0  0  0  0  0  0  0
  1 20  1  0  0  0  0
  2 20  1  0  0  0  0
  3 20  1  0  0  0  0
  4 21  1  0  0  0  0
  5 21  1  0  0  0  0
  6 21  1  0  0  0  0
  7 23  1  0  0  0  0
  7 27  1  0  0  0  0
  8 18  2  0  0  0  0
  9 28  1  0  0  0  0
  9 29  1  0  0  0  0
 10 28  2  0  0  0  0
 11 18  1  0  0  0  0
 11 19  1  0  0  0  0
 11 33  1  0  0  0  0
 12 15  2  0  0  0  0
 12 16  1  0  0  0  0
 12 18  1  0  0  0  0
 13 16  2  0  0  0  0
 13 17  1  0  0  0  0
 13 20  1  0  0  0  0
 14 15  1  0  0  0  0
 14 17  2  0  0  0  0
 14 21  1  0  0  0  0
 15 30  1  0  0  0  0
 16 31  1  0  0  0  0
 17 32  1  0  0  0  0
 19 22  2  0  0  0  0
 19 24  1  0  0  0  0
 22 23  1  0  0  0  0
 22 34  1  0  0  0  0
 23 25  2  0  0  0  0
 24 26  2  0  0  0  0
 24 35  1  0  0  0  0
 25 26  1  0  0  0  0
 25 36  1  0  0  0  0
 26 37  1  0  0  0  0
 27 28  1  0  0  0  0
 27 38  1  0  0  0  0
 27 39  1  0  0  0  0
 29 40  1  0  0  0  0
 29 41  1  0  0  0  0
 29 42  1  0  0  0  0
M  END
> <PUBCHEM_COMPOUND_CID>
46425160

> <PUBCHEM_COMPOUND_CANONICALIZED>
1

> <PUBCHEM_CACTVS_COMPLEXITY>
558

> <PUBCHEM_CACTVS_HBOND_ACCEPTOR>
10

> <PUBCHEM_CACTVS_HBOND_DONOR>
1

> <PUBCHEM_CACTVS_ROTATABLE_BOND>
6

> <PUBCHEM_CACTVS_SUBSKEYS>
AAADccB6OcAAAAAAAAAAAAAAAAAAAAAAAAAwYAAAAAAAAAABQAAAHwAQAAAADAyhmBIyzoLABACIAiXSWAKCCAAlIgAIiAFGbMgNJjLEtZ+GOSjm1BnK6YeY2EOOAAACAgAAAAAAAAQEAAAAAAAAAAAAAA==

> <PUBCHEM_IUPAC_OPENEYE_NAME>
methyl 2-[3-[[3,5-bis(trifluoromethyl)benzoyl]amino]phenoxy]acetate

> <PUBCHEM_IUPAC_CAS_NAME>
2-[3-[[[3,5-bis(trifluoromethyl)phenyl]-oxomethyl]amino]phenoxy]acetic acid methyl ester

> <PUBCHEM_IUPAC_NAME>
methyl 2-[3-[[3,5-bis(trifluoromethyl)benzoyl]amino]phenoxy]acetate

> <PUBCHEM_IUPAC_SYSTEMATIC_NAME>
methyl 2-[3-[[3,5-bis(trifluoromethyl)phenyl]carbonylamino]phenoxy]ethanoate

> <PUBCHEM_IUPAC_TRADITIONAL_NAME>
2-[3-[[3,5-bis(trifluoromethyl)benzoyl]amino]phenoxy]acetic acid methyl ester

> <PUBCHEM_IUPAC_INCHI>
InChI=1S/C18H13F6NO4/c1-28-15(26)9-29-14-4-2-3-13(8-14)25-16(27)10-5-11(17(19,20)21)7-12(6-10)18(22,23)24/h2-8H,9H2,1H3,(H,25,27)

> <PUBCHEM_IUPAC_INCHIKEY>
LCURRGUPZFZBPW-UHFFFAOYSA-N

> <PUBCHEM_XLOGP3>
4.1

> <PUBCHEM_EXACT_MASS>
421.074877

> <PUBCHEM_MOLECULAR_FORMULA>
C18H13F6NO4

> <PUBCHEM_MOLECULAR_WEIGHT>
421.290539

> <PUBCHEM_OPENEYE_CAN_SMILES>
COC(=O)COC1=CC=CC(=C1)NC(=O)C2=CC(=CC(=C2)C(F)(F)F)C(F)(F)F

> <PUBCHEM_OPENEYE_ISO_SMILES>
COC(=O)COC1=CC=CC(=C1)NC(=O)C2=CC(=CC(=C2)C(F)(F)F)C(F)(F)F

> <PUBCHEM_CACTVS_TPSA>
64.6

> <PUBCHEM_MONOISOTOPIC_WEIGHT>
421.074877

> <PUBCHEM_TOTAL_CHARGE>
0

> <PUBCHEM_HEAVY_ATOM_COUNT>
29

> <PUBCHEM_ATOM_DEF_STEREO_COUNT>
0

> <PUBCHEM_ATOM_UDEF_STEREO_COUNT>
0

> <PUBCHEM_BOND_DEF_STEREO_COUNT>
0

> <PUBCHEM_BOND_UDEF_STEREO_COUNT>
0

> <PUBCHEM_ISOTOPIC_ATOM_COUNT>
0

> <PUBCHEM_COMPONENT_COUNT>
1

> <PUBCHEM_CACTVS_TAUTO_COUNT>
2

> <PUBCHEM_COORDINATE_TYPE>
1
5
255

> <PUBCHEM_BONDANNOTATIONS>
12  15  8
12  16  8
13  16  8
13  17  8
14  15  8
14  17  8
19  22  8
19  24  8
22  23  8
23  25  8
24  26  8
25  26  8

$$$$
46433618
  -OEChem-11301217562D

 51 53  0     0  0  0  0  0  0999 V2000
    6.6353   -1.0219    0.0000 O   0  0  0  0  0  0  0  0  0  0  0  0
    6.2781    0.6730    0.0000 N   0  0  0  0  0  0  0  0  0  0  0  0
    4.6783   -3.0438    0.0000 N   0  0  0  0  0  0  0  0  0  0  0  0
   11.4813    2.6546    0.0000 C   0  0  0  0  0  0  0  0  0  0  0  0
   10.5028    2.4484    0.0000 C   0  0  0  0  0  0  0  0  0  0  0  0
   12.4598    2.8608    0.0000 C   0  0  0  0  0  0  0  0  0  0  0  0
   11.2751    3.6331    0.0000 C   0  0  0  0  0  0  0  0  0  0  0  0
   11.6875    1.6761    0.0000 C   0  0  0  0  0  0  0  0  0  0  0  0
    8.5458    2.0359    0.0000 C   0  0  0  0  0  0  0  0  0  0  0  0
    9.8349    3.1927    0.0000 C   0  0  0  0  0  0  0  0  0  0  0  0
   10.1921    1.4978    0.0000 C   0  0  0  0  0  0  0  0  0  0  0  0
    7.5673    1.8297    0.0000 C   0  0  0  0  0  0  0  0  0  0  0  0
    8.8564    2.9864    0.0000 C   0  0  0  0  0  0  0  0  0  0  0  0
    9.2136    1.2916    0.0000 C   0  0  0  0  0  0  0  0  0  0  0  0
    7.2566    0.8792    0.0000 C   0  0  0  0  0  0  0  0  0  0  0  0
    4.6783   -1.4343    0.0000 C   0  0  0  0  0  0  0  0  0  0  0  0
    3.7320   -1.7390    0.0000 C   0  0  0  0  0  0  0  0  0  0  0  0
    4.9889   -0.4838    0.0000 C   0  0  0  0  0  0  0  0  0  0  0  0
    3.7320   -2.7390    0.0000 C   0  0  0  0  0  0  0  0  0  0  0  0
    5.9674   -0.2776    0.0000 C   0  0  0  0  0  0  0  0  0  0  0  0
    5.2619   -2.2390    0.0000 C   0  0  0  0  0  0  0  0  0  0  0  0
    2.8660   -1.2390    0.0000 C   0  0  0  0  0  0  0  0  0  0  0  0
    2.8660   -3.2390    0.0000 C   0  0  0  0  0  0  0  0  0  0  0  0
    2.0000   -1.7390    0.0000 C   0  0  0  0  0  0  0  0  0  0  0  0
    2.0000   -2.7390    0.0000 C   0  0  0  0  0  0  0  0  0  0  0  0
   12.5877    2.2541    0.0000 H   0  0  0  0  0  0  0  0  0  0  0  0
   13.0665    2.9886    0.0000 H   0  0  0  0  0  0  0  0  0  0  0  0
   12.3319    3.4675    0.0000 H   0  0  0  0  0  0  0  0  0  0  0  0
   11.8817    3.7609    0.0000 H   0  0  0  0  0  0  0  0  0  0  0  0
   11.1472    4.2398    0.0000 H   0  0  0  0  0  0  0  0  0  0  0  0
   10.6684    3.5052    0.0000 H   0  0  0  0  0  0  0  0  0  0  0  0
   11.0808    1.5482    0.0000 H   0  0  0  0  0  0  0  0  0  0  0  0
   11.8154    1.0694    0.0000 H   0  0  0  0  0  0  0  0  0  0  0  0
   12.2942    1.8039    0.0000 H   0  0  0  0  0  0  0  0  0  0  0  0
   10.0276    3.7820    0.0000 H   0  0  0  0  0  0  0  0  0  0  0  0
   10.6062    1.0364    0.0000 H   0  0  0  0  0  0  0  0  0  0  0  0
    7.5467    2.4494    0.0000 H   0  0  0  0  0  0  0  0  0  0  0  0
    6.9534    1.9170    0.0000 H   0  0  0  0  0  0  0  0  0  0  0  0
    8.4424    3.4479    0.0000 H   0  0  0  0  0  0  0  0  0  0  0  0
    9.0210    0.7023    0.0000 H   0  0  0  0  0  0  0  0  0  0  0  0
    7.2772    0.2595    0.0000 H   0  0  0  0  0  0  0  0  0  0  0  0
    7.8704    0.7918    0.0000 H   0  0  0  0  0  0  0  0  0  0  0  0
    4.9684    0.1359    0.0000 H   0  0  0  0  0  0  0  0  0  0  0  0
    4.3751   -0.3964    0.0000 H   0  0  0  0  0  0  0  0  0  0  0  0
    5.8640    1.1344    0.0000 H   0  0  0  0  0  0  0  0  0  0  0  0
    5.8819   -2.2390    0.0000 H   0  0  0  0  0  0  0  0  0  0  0  0
    4.8709   -3.6331    0.0000 H   0  0  0  0  0  0  0  0  0  0  0  0
    2.8660   -0.6190    0.0000 H   0  0  0  0  0  0  0  0  0  0  0  0
    2.8660   -3.8590    0.0000 H   0  0  0  0  0  0  0  0  0  0  0  0
    1.4631   -1.4290    0.0000 H   0  0  0  0  0  0  0  0  0  0  0  0
    1.4631   -3.0490    0.0000 H   0  0  0  0  0  0  0  0  0  0  0  0
  1 20  2  0  0  0  0
  2 15  1  0  0  0  0
  2 20  1  0  0  0  0
  2 45  1  0  0  0  0
  3 19  1  0  0  0  0
  3 21  1  0  0  0  0
  3 47  1  0  0  0  0
  4  5  1  0  0  0  0
  4  6  1  0  0  0  0
  4  7  1  0  0  0  0
  4  8  1  0  0  0  0
  5 10  2  0  0  0  0
  5 11  1  0  0  0  0
  6 26  1  0  0  0  0
  6 27  1  0  0  0  0
  6 28  1  0  0  0  0
  7 29  1  0  0  0  0
  7 30  1  0  0  0  0
  7 31  1  0  0  0  0
  8 32  1  0  0  0  0
  8 33  1  0  0  0  0
  8 34  1  0  0  0  0
  9 12  1  0  0  0  0
  9 13  2  0  0  0  0
  9 14  1  0  0  0  0
 10 13  1  0  0  0  0
 10 35  1  0  0  0  0
 11 14  2  0  0  0  0
 11 36  1  0  0  0  0
 12 15  1  0  0  0  0
 12 37  1  0  0  0  0
 12 38  1  0  0  0  0
 13 39  1  0  0  0  0
 14 40  1  0  0  0  0
 15 41  1  0  0  0  0
 15 42  1  0  0  0  0
 16 17  1  0  0  0  0
 16 18  1  0  0  0  0
 16 21  2  0  0  0  0
 17 19  1  0  0  0  0
 17 22  2  0  0  0  0
 18 20  1  0  0  0  0
 18 43  1  0  0  0  0
 18 44  1  0  0  0  0
 19 23  2  0  0  0  0
 21 46  1  0  0  0  0
 22 24  1  0  0  0  0
 22 48  1  0  0  0  0
 23 25  1  0  0  0  0
 23 49  1  0  0  0  0
 24 25  2  0  0  0  0
 24 50  1  0  0  0  0
 25 51  1  0  0  0  0
M  END
> <PUBCHEM_COMPOUND_CID>
46433618

> <PUBCHEM_COMPOUND_CANONICALIZED>
1

> <PUBCHEM_CACTVS_COMPLEXITY>
434

> <PUBCHEM_CACTVS_HBOND_ACCEPTOR>
1

> <PUBCHEM_CACTVS_HBOND_DONOR>
2

> <PUBCHEM_CACTVS_ROTATABLE_BOND>
6

> <PUBCHEM_CACTVS_SUBSKEYS>
AAADceB7IAAAAAAAAAAAAAAAAAAAAWAAAAAwYAAAAAAAAFgB9AAAHgAQAAAADgjBngQ+wPLJkACoAzV3VACCgCAxAiAI2aE4ZJgIIPLAlZGEIAhglgDIyAccicCfwAAAAAACAACAAAAAAAQAAAAAAAAAAA==

> <PUBCHEM_IUPAC_OPENEYE_NAME>
N-[2-(4-tert-butylphenyl)ethyl]-2-(1H-indol-3-yl)acetamide

> <PUBCHEM_IUPAC_CAS_NAME>
N-[2-(4-tert-butylphenyl)ethyl]-2-(1H-indol-3-yl)acetamide

> <PUBCHEM_IUPAC_NAME>
N-[2-(4-tert-butylphenyl)ethyl]-2-(1H-indol-3-yl)acetamide

> <PUBCHEM_IUPAC_SYSTEMATIC_NAME>
N-[2-(4-tert-butylphenyl)ethyl]-2-(1H-indol-3-yl)ethanamide

> <PUBCHEM_IUPAC_TRADITIONAL_NAME>
N-[2-(4-tert-butylphenyl)ethyl]-2-(1H-indol-3-yl)acetamide

> <PUBCHEM_IUPAC_INCHI>
InChI=1S/C22H26N2O/c1-22(2,3)18-10-8-16(9-11-18)12-13-23-21(25)14-17-15-24-20-7-5-4-6-19(17)20/h4-11,15,24H,12-14H2,1-3H3,(H,23,25)

> <PUBCHEM_IUPAC_INCHIKEY>
DJPLKAJEXJGJHA-UHFFFAOYSA-N

> <PUBCHEM_XLOGP3>
4.8

> <PUBCHEM_EXACT_MASS>
334.204513

> <PUBCHEM_MOLECULAR_FORMULA>
C22H26N2O

> <PUBCHEM_MOLECULAR_WEIGHT>
334.45464

> <PUBCHEM_OPENEYE_CAN_SMILES>
CC(C)(C)C1=CC=C(C=C1)CCNC(=O)CC2=CNC3=CC=CC=C32

> <PUBCHEM_OPENEYE_ISO_SMILES>
CC(C)(C)C1=CC=C(C=C1)CCNC(=O)CC2=CNC3=CC=CC=C32

> <PUBCHEM_CACTVS_TPSA>
44.9

> <PUBCHEM_MONOISOTOPIC_WEIGHT>
334.204513

> <PUBCHEM_TOTAL_CHARGE>
0

> <PUBCHEM_HEAVY_ATOM_COUNT>
25

> <PUBCHEM_ATOM_DEF_STEREO_COUNT>
0

> <PUBCHEM_ATOM_UDEF_STEREO_COUNT>
0

> <PUBCHEM_BOND_DEF_STEREO_COUNT>
0

> <PUBCHEM_BOND_UDEF_STEREO_COUNT>
0

> <PUBCHEM_ISOTOPIC_ATOM_COUNT>
0

> <PUBCHEM_COMPONENT_COUNT>
1

> <PUBCHEM_CACTVS_TAUTO_COUNT>
2

> <PUBCHEM_COORDINATE_TYPE>
1
5
255

> <PUBCHEM_BONDANNOTATIONS>
10  13  8
11  14  8
16  17  8
16  21  8
17  19  8
17  22  8
19  23  8
22  24  8
23  25  8
24  25  8
3  19  8
3  21  8
5  10  8
5  11  8
9  13  8
9  14  8

$$$$
46447574
  -OEChem-11301217572D

 45 47  0     0  0  0  0  0  0999 V2000
    6.6353   -1.5460    0.0000 O   0  0  0  0  0  0  0  0  0  0  0  0
    6.2781    0.1489    0.0000 N   0  0  0  0  0  0  0  0  0  0  0  0
    4.6783   -3.5678    0.0000 N   0  0  0  0  0  0  0  0  0  0  0  0
    7.5673    1.3056    0.0000 C   0  0  0  0  0  0  0  0  0  0  0  0
    7.2566    0.3551    0.0000 C   0  0  0  0  0  0  0  0  0  0  0  0
    7.8779    2.2561    0.0000 C   0  0  0  0  0  0  0  0  0  0  0  0
    8.5178    0.9950    0.0000 C   0  0  0  0  0  0  0  0  0  0  0  0
    6.6168    1.6163    0.0000 C   0  0  0  0  0  0  0  0  0  0  0  0
    4.9889   -1.0079    0.0000 C   0  0  0  0  0  0  0  0  0  0  0  0
    8.8564    2.4623    0.0000 C   0  0  0  0  0  0  0  0  0  0  0  0
    7.2101    3.0004    0.0000 C   0  0  0  0  0  0  0  0  0  0  0  0
    5.9674   -0.8016    0.0000 C   0  0  0  0  0  0  0  0  0  0  0  0
    4.6783   -1.9584    0.0000 C   0  0  0  0  0  0  0  0  0  0  0  0
    3.7320   -2.2631    0.0000 C   0  0  0  0  0  0  0  0  0  0  0  0
    3.7320   -3.2631    0.0000 C   0  0  0  0  0  0  0  0  0  0  0  0
    5.2619   -2.7631    0.0000 C   0  0  0  0  0  0  0  0  0  0  0  0
    9.1671    3.4129    0.0000 C   0  0  0  0  0  0  0  0  0  0  0  0
    7.5208    3.9510    0.0000 C   0  0  0  0  0  0  0  0  0  0  0  0
    8.4993    4.1572    0.0000 C   0  0  0  0  0  0  0  0  0  0  0  0
    2.8660   -1.7631    0.0000 C   0  0  0  0  0  0  0  0  0  0  0  0
    2.8660   -3.7631    0.0000 C   0  0  0  0  0  0  0  0  0  0  0  0
    2.0000   -2.2631    0.0000 C   0  0  0  0  0  0  0  0  0  0  0  0
    2.0000   -3.2631    0.0000 C   0  0  0  0  0  0  0  0  0  0  0  0
    7.2772   -0.2646    0.0000 H   0  0  0  0  0  0  0  0  0  0  0  0
    7.8704    0.2677    0.0000 H   0  0  0  0  0  0  0  0  0  0  0  0
    8.3252    0.4056    0.0000 H   0  0  0  0  0  0  0  0  0  0  0  0
    6.8094    2.2056    0.0000 H   0  0  0  0  0  0  0  0  0  0  0  0
    6.0274    1.8089    0.0000 H   0  0  0  0  0  0  0  0  0  0  0  0
    6.4241    1.0270    0.0000 H   0  0  0  0  0  0  0  0  0  0  0  0
    9.1071    0.8023    0.0000 H   0  0  0  0  0  0  0  0  0  0  0  0
    8.7104    1.5843    0.0000 H   0  0  0  0  0  0  0  0  0  0  0  0
    5.8640    0.6103    0.0000 H   0  0  0  0  0  0  0  0  0  0  0  0
    4.9684   -0.3882    0.0000 H   0  0  0  0  0  0  0  0  0  0  0  0
    4.3751   -0.9205    0.0000 H   0  0  0  0  0  0  0  0  0  0  0  0
    9.2705    2.0009    0.0000 H   0  0  0  0  0  0  0  0  0  0  0  0
    6.6034    2.8726    0.0000 H   0  0  0  0  0  0  0  0  0  0  0  0
    5.8819   -2.7631    0.0000 H   0  0  0  0  0  0  0  0  0  0  0  0
    9.7738    3.5407    0.0000 H   0  0  0  0  0  0  0  0  0  0  0  0
    7.1067    4.4124    0.0000 H   0  0  0  0  0  0  0  0  0  0  0  0
    4.8709   -4.1572    0.0000 H   0  0  0  0  0  0  0  0  0  0  0  0
    8.6919    4.7465    0.0000 H   0  0  0  0  0  0  0  0  0  0  0  0
    2.8660   -1.1431    0.0000 H   0  0  0  0  0  0  0  0  0  0  0  0
    2.8660   -4.3831    0.0000 H   0  0  0  0  0  0  0  0  0  0  0  0
    1.4631   -1.9531    0.0000 H   0  0  0  0  0  0  0  0  0  0  0  0
    1.4631   -3.5731    0.0000 H   0  0  0  0  0  0  0  0  0  0  0  0
  1 12  2  0  0  0  0
  2  5  1  0  0  0  0
  2 12  1  0  0  0  0
  2 32  1  0  0  0  0
  3 15  1  0  0  0  0
  3 16  1  0  0  0  0
  3 40  1  0  0  0  0
  4  5  1  0  0  0  0
  4  6  1  0  0  0  0
  4  7  1  0  0  0  0
  4  8  1  0  0  0  0
  5 24  1  0  0  0  0
  5 25  1  0  0  0  0
  6 10  2  0  0  0  0
  6 11  1  0  0  0  0
  7 26  1  0  0  0  0
  7 30  1  0  0  0  0
  7 31  1  0  0  0  0
  8 27  1  0  0  0  0
  8 28  1  0  0  0  0
  8 29  1  0  0  0  0
  9 12  1  0  0  0  0
  9 13  1  0  0  0  0
  9 33  1  0  0  0  0
  9 34  1  0  0  0  0
 10 17  1  0  0  0  0
 10 35  1  0  0  0  0
 11 18  2  0  0  0  0
 11 36  1  0  0  0  0
 13 14  1  0  0  0  0
 13 16  2  0  0  0  0
 14 15  1  0  0  0  0
 14 20  2  0  0  0  0
 15 21  2  0  0  0  0
 16 37  1  0  0  0  0
 17 19  2  0  0  0  0
 17 38  1  0  0  0  0
 18 19  1  0  0  0  0
 18 39  1  0  0  0  0
 19 41  1  0  0  0  0
 20 22  1  0  0  0  0
 20 42  1  0  0  0  0
 21 23  1  0  0  0  0
 21 43  1  0  0  0  0
 22 23  2  0  0  0  0
 22 44  1  0  0  0  0
 23 45  1  0  0  0  0
M  END
> <PUBCHEM_COMPOUND_CID>
46447574

> <PUBCHEM_COMPOUND_CANONICALIZED>
1

> <PUBCHEM_CACTVS_COMPLEXITY>
400

> <PUBCHEM_CACTVS_HBOND_ACCEPTOR>
1

> <PUBCHEM_CACTVS_HBOND_DONOR>
2

> <PUBCHEM_CACTVS_ROTATABLE_BOND>
5

> <PUBCHEM_CACTVS_SUBSKEYS>
AAADceB7IAAAAAAAAAAAAAAAAAAAAWAAAAAwYAAAAAAAAFgB9AAAHgAQAAAADgjBngQ+wPLJkACoAzV3VACCgCAxAiAI2aE4ZJgIIPLAlZGEIAhglgDIyAccicCfgAAAAAACAAAAAAAAAAQAAAAAAAAAAA==

> <PUBCHEM_IUPAC_OPENEYE_NAME>
2-(1H-indol-3-yl)-N-(2-methyl-2-phenyl-propyl)acetamide

> <PUBCHEM_IUPAC_CAS_NAME>
2-(1H-indol-3-yl)-N-(2-methyl-2-phenylpropyl)acetamide

> <PUBCHEM_IUPAC_NAME>
2-(1H-indol-3-yl)-N-(2-methyl-2-phenylpropyl)acetamide

> <PUBCHEM_IUPAC_SYSTEMATIC_NAME>
2-(1H-indol-3-yl)-N-(2-methyl-2-phenyl-propyl)ethanamide

> <PUBCHEM_IUPAC_TRADITIONAL_NAME>
2-(1H-indol-3-yl)-N-neophyl-acetamide

> <PUBCHEM_IUPAC_INCHI>
InChI=1S/C20H22N2O/c1-20(2,16-8-4-3-5-9-16)14-22-19(23)12-15-13-21-18-11-7-6-10-17(15)18/h3-11,13,21H,12,14H2,1-2H3,(H,22,23)

> <PUBCHEM_IUPAC_INCHIKEY>
QEKNGYZFFQUINY-UHFFFAOYSA-N

> <PUBCHEM_XLOGP3>
4

> <PUBCHEM_EXACT_MASS>
306.173213

> <PUBCHEM_MOLECULAR_FORMULA>
C20H22N2O

> <PUBCHEM_MOLECULAR_WEIGHT>
306.40148

> <PUBCHEM_OPENEYE_CAN_SMILES>
CC(C)(CNC(=O)CC1=CNC2=CC=CC=C21)C3=CC=CC=C3

> <PUBCHEM_OPENEYE_ISO_SMILES>
CC(C)(CNC(=O)CC1=CNC2=CC=CC=C21)C3=CC=CC=C3

> <PUBCHEM_CACTVS_TPSA>
44.9

> <PUBCHEM_MONOISOTOPIC_WEIGHT>
306.173213

> <PUBCHEM_TOTAL_CHARGE>
0

> <PUBCHEM_HEAVY_ATOM_COUNT>
23

> <PUBCHEM_ATOM_DEF_STEREO_COUNT>
0

> <PUBCHEM_ATOM_UDEF_STEREO_COUNT>
0

> <PUBCHEM_BOND_DEF_STEREO_COUNT>
0

> <PUBCHEM_BOND_UDEF_STEREO_COUNT>
0

> <PUBCHEM_ISOTOPIC_ATOM_COUNT>
0

> <PUBCHEM_COMPONENT_COUNT>
1

> <PUBCHEM_CACTVS_TAUTO_COUNT>
2

> <PUBCHEM_COORDINATE_TYPE>
1
5
255

> <PUBCHEM_BONDANNOTATIONS>
10  17  8
11  18  8
13  14  8
13  16  8
14  15  8
14  20  8
15  21  8
17  19  8
18  19  8
20  22  8
21  23  8
22  23  8
3  15  8
3  16  8
6  10  8
6  11  8

$$$$
