27185704
  -OEChem-12041211322D

 43 45  0     0  0  0  0  0  0999 V2000
    5.0132   -0.6786    0.0000 N   0  3  0  0  0  0  0  0  0  0  0  0
    4.1472   -1.1786    0.0000 C   0  0  0  0  0  0  0  0  0  0  0  0
    3.3209   -0.6153    0.0000 C   0  0  0  0  0  0  0  0  0  0  0  0
    4.2219   -2.1758    0.0000 C   0  0  0  0  0  0  0  0  0  0  0  0
    2.3653   -0.9101    0.0000 C   0  0  0  0  0  0  0  0  0  0  0  0
    3.4888   -2.8560    0.0000 C   0  0  0  0  0  0  0  0  0  0  0  0
    2.0000   -1.8410    0.0000 C   0  0  0  0  0  0  0  0  0  0  0  0
    2.5000   -2.7070    0.0000 C   0  0  0  0  0  0  0  0  0  0  0  0
    5.8792   -0.1786    0.0000 C   0  0  0  0  0  0  0  0  0  0  0  0
    5.8792    0.8214    0.0000 C   0  0  0  0  0  0  0  0  0  0  0  0
    6.7452    1.3214    0.0000 C   0  0  0  0  0  0  0  0  0  0  0  0
    5.0132    1.3214    0.0000 C   0  0  0  0  0  0  0  0  0  0  0  0
    6.7452    2.3214    0.0000 C   0  0  0  0  0  0  0  0  0  0  0  0
    7.6392    0.7867    0.0000 C   0  0  0  0  0  0  0  0  0  0  0  0
    5.0132    2.3214    0.0000 C   0  0  0  0  0  0  0  0  0  0  0  0
    5.8792    2.8214    0.0000 C   0  0  0  0  0  0  0  0  0  0  0  0
    7.6392    2.8560    0.0000 C   0  0  0  0  0  0  0  0  0  0  0  0
    8.5452    1.3005    0.0000 C   0  0  0  0  0  0  0  0  0  0  0  0
    8.5452    2.3422    0.0000 C   0  0  0  0  0  0  0  0  0  0  0  0
    4.1703   -0.5591    0.0000 H   0  0  0  0  0  0  0  0  0  0  0  0
    4.5319   -2.7128    0.0000 H   0  0  0  0  0  0  0  0  0  0  0  0
    4.8143   -1.9931    0.0000 H   0  0  0  0  0  0  0  0  0  0  0  0
    3.7754   -0.1936    0.0000 H   0  0  0  0  0  0  0  0  0  0  0  0
    3.0109   -0.0784    0.0000 H   0  0  0  0  0  0  0  0  0  0  0  0
    5.3232   -1.2156    0.0000 H   0  0  0  0  0  0  0  0  0  0  0  0
    4.7032   -0.1417    0.0000 H   0  0  0  0  0  0  0  0  0  0  0  0
    3.2623   -3.4332    0.0000 H   0  0  0  0  0  0  0  0  0  0  0  0
    4.0011   -3.2053    0.0000 H   0  0  0  0  0  0  0  0  0  0  0  0
    2.3190   -0.2918    0.0000 H   0  0  0  0  0  0  0  0  0  0  0  0
    1.7523   -0.8177    0.0000 H   0  0  0  0  0  0  0  0  0  0  0  0
    1.9075   -2.8897    0.0000 H   0  0  0  0  0  0  0  0  0  0  0  0
    2.5463   -3.3252    0.0000 H   0  0  0  0  0  0  0  0  0  0  0  0
    1.4877   -1.4917    0.0000 H   0  0  0  0  0  0  0  0  0  0  0  0
    1.5455   -2.2627    0.0000 H   0  0  0  0  0  0  0  0  0  0  0  0
    6.0913   -0.7613    0.0000 H   0  0  0  0  0  0  0  0  0  0  0  0
    6.4898   -0.0710    0.0000 H   0  0  0  0  0  0  0  0  0  0  0  0
    4.4762    1.0114    0.0000 H   0  0  0  0  0  0  0  0  0  0  0  0
    7.6320    0.1667    0.0000 H   0  0  0  0  0  0  0  0  0  0  0  0
    4.4762    2.6314    0.0000 H   0  0  0  0  0  0  0  0  0  0  0  0
    5.8792    3.4414    0.0000 H   0  0  0  0  0  0  0  0  0  0  0  0
    7.6320    3.4760    0.0000 H   0  0  0  0  0  0  0  0  0  0  0  0
    9.0810    0.9885    0.0000 H   0  0  0  0  0  0  0  0  0  0  0  0
    9.0810    2.6542    0.0000 H   0  0  0  0  0  0  0  0  0  0  0  0
  1  2  1  0  0  0  0
  1  9  1  0  0  0  0
  1 25  1  0  0  0  0
  1 26  1  0  0  0  0
  2  3  1  0  0  0  0
  2  4  1  0  0  0  0
  2 20  1  0  0  0  0
  3  5  1  0  0  0  0
  3 23  1  0  0  0  0
  3 24  1  0  0  0  0
  4  6  1  0  0  0  0
  4 21  1  0  0  0  0
  4 22  1  0  0  0  0
  5  7  1  0  0  0  0
  5 29  1  0  0  0  0
  5 30  1  0  0  0  0
  6  8  1  0  0  0  0
  6 27  1  0  0  0  0
  6 28  1  0  0  0  0
  7  8  1  0  0  0  0
  7 33  1  0  0  0  0
  7 34  1  0  0  0  0
  8 31  1  0  0  0  0
  8 32  1  0  0  0  0
  9 10  1  0  0  0  0
  9 35  1  0  0  0  0
  9 36  1  0  0  0  0
 10 11  1  0  0  0  0
 10 12  2  0  0  0  0
 11 13  1  0  0  0  0
 11 14  2  0  0  0  0
 12 15  1  0  0  0  0
 12 37  1  0  0  0  0
 13 16  1  0  0  0  0
 13 17  2  0  0  0  0
 14 18  1  0  0  0  0
 14 38  1  0  0  0  0
 15 16  2  0  0  0  0
 15 39  1  0  0  0  0
 16 40  1  0  0  0  0
 17 19  1  0  0  0  0
 17 41  1  0  0  0  0
 18 19  2  0  0  0  0
 18 42  1  0  0  0  0
 19 43  1  0  0  0  0
M  CHG  1   1   1
M  END
> <PUBCHEM_COMPOUND_CID>
27185704

> <PUBCHEM_COMPOUND_CANONICALIZED>
1

> <PUBCHEM_CACTVS_COMPLEXITY>
254

> <PUBCHEM_CACTVS_HBOND_ACCEPTOR>
0

> <PUBCHEM_CACTVS_HBOND_DONOR>
1

> <PUBCHEM_CACTVS_ROTATABLE_BOND>
3

> <PUBCHEM_CACTVS_SUBSKEYS>
AAADceB6AAAAAAAAAAAAAAAAAAAAAAAAAAAwYAAABgAAAADBUAAAHAAQAAAADCjBGAQwAMLAAACAAiBCAACCAAAgAAAIiIAIBIgIICKAkRGEIAhgkACIiAcQgMAOgAACAAAQAAAAAAQAACAAAAAAAAAAAA==

> <PUBCHEM_IUPAC_OPENEYE_NAME>
cycloheptyl(1-naphthylmethyl)ammonium

> <PUBCHEM_IUPAC_CAS_NAME>
cycloheptyl(1-naphthalenylmethyl)ammonium

> <PUBCHEM_IUPAC_NAME>
cycloheptyl(naphthalen-1-ylmethyl)azanium

> <PUBCHEM_IUPAC_SYSTEMATIC_NAME>
cycloheptyl(naphthalen-1-ylmethyl)azanium

> <PUBCHEM_IUPAC_TRADITIONAL_NAME>
cycloheptyl(1-naphthylmethyl)ammonium

> <PUBCHEM_IUPAC_INCHI>
InChI=1S/C18H23N/c1-2-4-12-17(11-3-1)19-14-16-10-7-9-15-8-5-6-13-18(15)16/h5-10,13,17,19H,1-4,11-12,14H2/p+1

> <PUBCHEM_IUPAC_INCHIKEY>
UEMVHARHMAAYOU-UHFFFAOYSA-O

> <PUBCHEM_XLOGP3>
5

> <PUBCHEM_EXACT_MASS>
254.190875

> <PUBCHEM_MOLECULAR_FORMULA>
C18H24N+

> <PUBCHEM_MOLECULAR_WEIGHT>
254.38986

> <PUBCHEM_OPENEYE_CAN_SMILES>
C1CCCC(CC1)[NH2+]CC2=CC=CC3=CC=CC=C32

> <PUBCHEM_OPENEYE_ISO_SMILES>
C1CCCC(CC1)[NH2+]CC2=CC=CC3=CC=CC=C32

> <PUBCHEM_CACTVS_TPSA>
16.6

> <PUBCHEM_MONOISOTOPIC_WEIGHT>
254.190875

> <PUBCHEM_TOTAL_CHARGE>
1

> <PUBCHEM_HEAVY_ATOM_COUNT>
19

> <PUBCHEM_ATOM_DEF_STEREO_COUNT>
0

> <PUBCHEM_ATOM_UDEF_STEREO_COUNT>
0

> <PUBCHEM_BOND_DEF_STEREO_COUNT>
0

> <PUBCHEM_BOND_UDEF_STEREO_COUNT>
0

> <PUBCHEM_ISOTOPIC_ATOM_COUNT>
0

> <PUBCHEM_COMPONENT_COUNT>
1

> <PUBCHEM_CACTVS_TAUTO_COUNT>
1

> <PUBCHEM_COORDINATE_TYPE>
1
5
255

> <PUBCHEM_BONDANNOTATIONS>
10  11  8
10  12  8
11  13  8
11  14  8
12  15  8
13  16  8
13  17  8
14  18  8
15  16  8
17  19  8
18  19  8

$$$$
27194598
  -OEChem-12041211322D

 40 41  0     0  0  0  0  0  0999 V2000
    5.4641   -1.5000    0.0000 O   0  0  0  0  0  0  0  0  0  0  0  0
    3.7320   -1.5000    0.0000 N   0  0  0  0  0  0  0  0  0  0  0  0
    4.5981    0.0000    0.0000 N   0  0  0  0  0  0  0  0  0  0  0  0
    3.7320   -2.5000    0.0000 C   0  0  0  0  0  0  0  0  0  0  0  0
    2.8660   -3.0000    0.0000 C   0  0  0  0  0  0  0  0  0  0  0  0
    5.4641    0.5000    0.0000 C   0  0  0  0  0  0  0  0  0  0  0  0
    5.4641    1.5000    0.0000 C   0  0  0  0  0  0  0  0  0  0  0  0
    4.5981   -4.0000    0.0000 C   0  0  0  0  0  0  0  0  0  0  0  0
    4.5981   -3.0000    0.0000 C   0  0  0  0  0  0  0  0  0  0  0  0
    2.8660   -4.0000    0.0000 C   0  0  0  0  0  0  0  0  0  0  0  0
    3.7320   -4.5000    0.0000 C   0  0  0  0  0  0  0  0  0  0  0  0
    6.3301    2.0000    0.0000 C   0  0  0  0  0  0  0  0  0  0  0  0
    4.5981    2.0000    0.0000 C   0  0  0  0  0  0  0  0  0  0  0  0
    5.4641    3.5000    0.0000 C   0  0  0  0  0  0  0  0  0  0  0  0
    4.5981   -1.0000    0.0000 C   0  0  0  0  0  0  0  0  0  0  0  0
    2.0000   -2.5000    0.0000 C   0  0  0  0  0  0  0  0  0  0  0  0
    6.3301    3.0000    0.0000 C   0  0  0  0  0  0  0  0  0  0  0  0
    4.5981    3.0000    0.0000 C   0  0  0  0  0  0  0  0  0  0  0  0
    5.4641   -4.5000    0.0000 C   0  0  0  0  0  0  0  0  0  0  0  0
    5.4641    4.5000    0.0000 C   0  0  0  0  0  0  0  0  0  0  0  0
    5.6762   -0.0826    0.0000 H   0  0  0  0  0  0  0  0  0  0  0  0
    6.0747    0.6077    0.0000 H   0  0  0  0  0  0  0  0  0  0  0  0
    5.1350   -2.6900    0.0000 H   0  0  0  0  0  0  0  0  0  0  0  0
    3.1951   -1.1900    0.0000 H   0  0  0  0  0  0  0  0  0  0  0  0
    2.3291   -4.3100    0.0000 H   0  0  0  0  0  0  0  0  0  0  0  0
    4.0611    0.3100    0.0000 H   0  0  0  0  0  0  0  0  0  0  0  0
    3.7320   -5.1200    0.0000 H   0  0  0  0  0  0  0  0  0  0  0  0
    6.8671    1.6900    0.0000 H   0  0  0  0  0  0  0  0  0  0  0  0
    4.0611    1.6900    0.0000 H   0  0  0  0  0  0  0  0  0  0  0  0
    2.3100   -1.9631    0.0000 H   0  0  0  0  0  0  0  0  0  0  0  0
    1.4631   -2.1900    0.0000 H   0  0  0  0  0  0  0  0  0  0  0  0
    1.6900   -3.0369    0.0000 H   0  0  0  0  0  0  0  0  0  0  0  0
    6.8671    3.3100    0.0000 H   0  0  0  0  0  0  0  0  0  0  0  0
    4.0611    3.3100    0.0000 H   0  0  0  0  0  0  0  0  0  0  0  0
    5.1541   -5.0369    0.0000 H   0  0  0  0  0  0  0  0  0  0  0  0
    6.0010   -4.8100    0.0000 H   0  0  0  0  0  0  0  0  0  0  0  0
    5.7741   -3.9631    0.0000 H   0  0  0  0  0  0  0  0  0  0  0  0
    6.0841    4.5000    0.0000 H   0  0  0  0  0  0  0  0  0  0  0  0
    5.4641    5.1200    0.0000 H   0  0  0  0  0  0  0  0  0  0  0  0
    4.8441    4.5000    0.0000 H   0  0  0  0  0  0  0  0  0  0  0  0
  1 15  2  0  0  0  0
  2  4  1  0  0  0  0
  2 15  1  0  0  0  0
  2 24  1  0  0  0  0
  3  6  1  0  0  0  0
  3 15  1  0  0  0  0
  3 26  1  0  0  0  0
  4  5  2  0  0  0  0
  4  9  1  0  0  0  0
  5 10  1  0  0  0  0
  5 16  1  0  0  0  0
  6  7  1  0  0  0  0
  6 21  1  0  0  0  0
  6 22  1  0  0  0  0
  7 12  2  0  0  0  0
  7 13  1  0  0  0  0
  8  9  2  0  0  0  0
  8 11  1  0  0  0  0
  8 19  1  0  0  0  0
  9 23  1  0  0  0  0
 10 11  2  0  0  0  0
 10 25  1  0  0  0  0
 11 27  1  0  0  0  0
 12 17  1  0  0  0  0
 12 28  1  0  0  0  0
 13 18  2  0  0  0  0
 13 29  1  0  0  0  0
 14 17  2  0  0  0  0
 14 18  1  0  0  0  0
 14 20  1  0  0  0  0
 16 30  1  0  0  0  0
 16 31  1  0  0  0  0
 16 32  1  0  0  0  0
 17 33  1  0  0  0  0
 18 34  1  0  0  0  0
 19 35  1  0  0  0  0
 19 36  1  0  0  0  0
 19 37  1  0  0  0  0
 20 38  1  0  0  0  0
 20 39  1  0  0  0  0
 20 40  1  0  0  0  0
M  END
> <PUBCHEM_COMPOUND_CID>
27194598

> <PUBCHEM_COMPOUND_CANONICALIZED>
1

> <PUBCHEM_CACTVS_COMPLEXITY>
310

> <PUBCHEM_CACTVS_HBOND_ACCEPTOR>
1

> <PUBCHEM_CACTVS_HBOND_DONOR>
2

> <PUBCHEM_CACTVS_ROTATABLE_BOND>
3

> <PUBCHEM_CACTVS_SUBSKEYS>
AAADceB7IAAAAAAAAAAAAAAAAAAAAAAAAAAwYAAAAAAAAAABQAAAHgAQAAAADAjBGAQzwILAAACIAiRCUACCAAAhAgAIiIAIZIiIICLAkZGEIAholgJIyCcQgAAOQAAAQAACAACAAACAAAQAAAAAAAAAAA==

> <PUBCHEM_IUPAC_OPENEYE_NAME>
1-(2,5-dimethylphenyl)-3-(p-tolylmethyl)urea

> <PUBCHEM_IUPAC_CAS_NAME>
1-(2,5-dimethylphenyl)-3-[(4-methylphenyl)methyl]urea

> <PUBCHEM_IUPAC_NAME>
1-(2,5-dimethylphenyl)-3-[(4-methylphenyl)methyl]urea

> <PUBCHEM_IUPAC_SYSTEMATIC_NAME>
1-(2,5-dimethylphenyl)-3-[(4-methylphenyl)methyl]urea

> <PUBCHEM_IUPAC_TRADITIONAL_NAME>
1-(2,5-dimethylphenyl)-3-(4-methylbenzyl)urea

> <PUBCHEM_IUPAC_INCHI>
InChI=1S/C17H20N2O/c1-12-5-8-15(9-6-12)11-18-17(20)19-16-10-13(2)4-7-14(16)3/h4-10H,11H2,1-3H3,(H2,18,19,20)

> <PUBCHEM_IUPAC_INCHIKEY>
XHOBTZASAWBFEE-UHFFFAOYSA-N

> <PUBCHEM_XLOGP3>
3.2

> <PUBCHEM_EXACT_MASS>
268.157563

> <PUBCHEM_MOLECULAR_FORMULA>
C17H20N2O

> <PUBCHEM_MOLECULAR_WEIGHT>
268.3535

> <PUBCHEM_OPENEYE_CAN_SMILES>
CC1=CC=C(C=C1)CNC(=O)NC2=C(C=CC(=C2)C)C

> <PUBCHEM_OPENEYE_ISO_SMILES>
CC1=CC=C(C=C1)CNC(=O)NC2=C(C=CC(=C2)C)C

> <PUBCHEM_CACTVS_TPSA>
41.1

> <PUBCHEM_MONOISOTOPIC_WEIGHT>
268.157563

> <PUBCHEM_TOTAL_CHARGE>
0

> <PUBCHEM_HEAVY_ATOM_COUNT>
20

> <PUBCHEM_ATOM_DEF_STEREO_COUNT>
0

> <PUBCHEM_ATOM_UDEF_STEREO_COUNT>
0

> <PUBCHEM_BOND_DEF_STEREO_COUNT>
0

> <PUBCHEM_BOND_UDEF_STEREO_COUNT>
0

> <PUBCHEM_ISOTOPIC_ATOM_COUNT>
0

> <PUBCHEM_COMPONENT_COUNT>
1

> <PUBCHEM_CACTVS_TAUTO_COUNT>
3

> <PUBCHEM_COORDINATE_TYPE>
1
5
255

> <PUBCHEM_BONDANNOTATIONS>
10  11  8
12  17  8
13  18  8
14  17  8
14  18  8
4  5  8
4  9  8
5  10  8
7  12  8
7  13  8
8  11  8
8  9  8

$$$$
27194602
  -OEChem-12041211322D

 48 48  0     1  0  0  0  0  0999 V2000
    6.3301   -0.2500    0.0000 O   0  0  0  0  0  0  0  0  0  0  0  0
    5.4641    1.2500    0.0000 N   0  0  0  0  0  0  0  0  0  0  0  0
    4.5981   -0.2500    0.0000 N   0  0  0  0  0  0  0  0  0  0  0  0
    6.3301    1.7500    0.0000 C   0  0  2  0  0  0  0  0  0  0  0  0
    4.5981    1.7500    0.0000 C   0  0  1  0  0  0  0  0  0  0  0  0
    4.5981    2.7500    0.0000 C   0  0  0  0  0  0  0  0  0  0  0  0
    6.3301    2.7500    0.0000 C   0  0  0  0  0  0  0  0  0  0  0  0
    3.7320    1.2500    0.0000 C   0  0  0  0  0  0  0  0  0  0  0  0
    7.1962    1.2500    0.0000 C   0  0  0  0  0  0  0  0  0  0  0  0
    5.4641    0.2500    0.0000 C   0  0  0  0  0  0  0  0  0  0  0  0
    3.7320    3.2500    0.0000 C   0  0  0  0  0  0  0  0  0  0  0  0
    7.1962    3.2500    0.0000 C   0  0  0  0  0  0  0  0  0  0  0  0
    4.5981   -1.2500    0.0000 C   0  0  0  0  0  0  0  0  0  0  0  0
    3.7320   -1.7500    0.0000 C   0  0  0  0  0  0  0  0  0  0  0  0
    2.8660   -1.2500    0.0000 C   0  0  0  0  0  0  0  0  0  0  0  0
    5.4641   -1.7500    0.0000 C   0  0  0  0  0  0  0  0  0  0  0  0
    3.7320   -2.7500    0.0000 C   0  0  0  0  0  0  0  0  0  0  0  0
    5.4641   -2.7500    0.0000 C   0  0  0  0  0  0  0  0  0  0  0  0
    4.5981   -3.2500    0.0000 C   0  0  0  0  0  0  0  0  0  0  0  0
    2.0000   -1.7500    0.0000 C   0  0  0  0  0  0  0  0  0  0  0  0
    5.7932    2.0600    0.0000 H   0  0  0  0  0  0  0  0  0  0  0  0
    4.5981    1.1300    0.0000 H   0  0  0  0  0  0  0  0  0  0  0  0
    5.2087    2.6423    0.0000 H   0  0  0  0  0  0  0  0  0  0  0  0
    4.8101    3.3326    0.0000 H   0  0  0  0  0  0  0  0  0  0  0  0
    6.1181    3.3326    0.0000 H   0  0  0  0  0  0  0  0  0  0  0  0
    5.7196    2.6423    0.0000 H   0  0  0  0  0  0  0  0  0  0  0  0
    6.8862    0.7131    0.0000 H   0  0  0  0  0  0  0  0  0  0  0  0
    7.7331    0.9400    0.0000 H   0  0  0  0  0  0  0  0  0  0  0  0
    7.5062    1.7869    0.0000 H   0  0  0  0  0  0  0  0  0  0  0  0
    3.4220    1.7869    0.0000 H   0  0  0  0  0  0  0  0  0  0  0  0
    3.1951    0.9400    0.0000 H   0  0  0  0  0  0  0  0  0  0  0  0
    4.0420    0.7131    0.0000 H   0  0  0  0  0  0  0  0  0  0  0  0
    7.5062    2.7131    0.0000 H   0  0  0  0  0  0  0  0  0  0  0  0
    7.7331    3.5600    0.0000 H   0  0  0  0  0  0  0  0  0  0  0  0
    6.8862    3.7869    0.0000 H   0  0  0  0  0  0  0  0  0  0  0  0
    4.0420    3.7869    0.0000 H   0  0  0  0  0  0  0  0  0  0  0  0
    3.1951    3.5600    0.0000 H   0  0  0  0  0  0  0  0  0  0  0  0
    3.4220    2.7131    0.0000 H   0  0  0  0  0  0  0  0  0  0  0  0
    4.0611    0.0600    0.0000 H   0  0  0  0  0  0  0  0  0  0  0  0
    3.2646   -0.7751    0.0000 H   0  0  0  0  0  0  0  0  0  0  0  0
    2.4675   -0.7751    0.0000 H   0  0  0  0  0  0  0  0  0  0  0  0
    6.0010   -1.4400    0.0000 H   0  0  0  0  0  0  0  0  0  0  0  0
    3.1951   -3.0600    0.0000 H   0  0  0  0  0  0  0  0  0  0  0  0
    6.0010   -3.0600    0.0000 H   0  0  0  0  0  0  0  0  0  0  0  0
    4.5981   -3.8700    0.0000 H   0  0  0  0  0  0  0  0  0  0  0  0
    1.6900   -1.2131    0.0000 H   0  0  0  0  0  0  0  0  0  0  0  0
    1.4631   -2.0600    0.0000 H   0  0  0  0  0  0  0  0  0  0  0  0
    2.3100   -2.2869    0.0000 H   0  0  0  0  0  0  0  0  0  0  0  0
  1 10  2  0  0  0  0
  4  2  1  6  0  0  0
  5  2  1  6  0  0  0
  2 10  1  0  0  0  0
  3 10  1  0  0  0  0
  3 13  1  0  0  0  0
  3 39  1  0  0  0  0
  4  7  1  0  0  0  0
  4  9  1  0  0  0  0
  4 21  1  0  0  0  0
  5  6  1  0  0  0  0
  5  8  1  0  0  0  0
  5 22  1  0  0  0  0
  6 11  1  0  0  0  0
  6 23  1  0  0  0  0
  6 24  1  0  0  0  0
  7 12  1  0  0  0  0
  7 25  1  0  0  0  0
  7 26  1  0  0  0  0
  8 30  1  0  0  0  0
  8 31  1  0  0  0  0
  8 32  1  0  0  0  0
  9 27  1  0  0  0  0
  9 28  1  0  0  0  0
  9 29  1  0  0  0  0
 11 36  1  0  0  0  0
 11 37  1  0  0  0  0
 11 38  1  0  0  0  0
 12 33  1  0  0  0  0
 12 34  1  0  0  0  0
 12 35  1  0  0  0  0
 13 14  1  0  0  0  0
 13 16  2  0  0  0  0
 14 15  1  0  0  0  0
 14 17  2  0  0  0  0
 15 20  1  0  0  0  0
 15 40  1  0  0  0  0
 15 41  1  0  0  0  0
 16 18  1  0  0  0  0
 16 42  1  0  0  0  0
 17 19  1  0  0  0  0
 17 43  1  0  0  0  0
 18 19  2  0  0  0  0
 18 44  1  0  0  0  0
 19 45  1  0  0  0  0
 20 46  1  0  0  0  0
 20 47  1  0  0  0  0
 20 48  1  0  0  0  0
M  END
> <PUBCHEM_COMPOUND_CID>
27194602

> <PUBCHEM_COMPOUND_CANONICALIZED>
1

> <PUBCHEM_CACTVS_COMPLEXITY>
283

> <PUBCHEM_CACTVS_HBOND_ACCEPTOR>
1

> <PUBCHEM_CACTVS_HBOND_DONOR>
1

> <PUBCHEM_CACTVS_ROTATABLE_BOND>
6

> <PUBCHEM_CACTVS_SUBSKEYS>
AAADceB7IAAAAAAAAAAAAAAAAAAAAAAAAAAwAAAAAAAAAAABAAAAHgAQAAAADCjBGAQzwIPAAACIAiRCUACCAAAhAgAIiAAIZIiIICLAkZGEIAholgLIyCcQgIAOAAAAAAACAAAAAAAAAAQAAAAAAAAAAA==

> <PUBCHEM_IUPAC_OPENEYE_NAME>
3-(2-ethylphenyl)-1-[(1R)-1-methylpropyl]-1-[(1S)-1-methylpropyl]urea

> <PUBCHEM_IUPAC_CAS_NAME>
1-[(2R)-butan-2-yl]-1-[(2S)-butan-2-yl]-3-(2-ethylphenyl)urea

> <PUBCHEM_IUPAC_NAME>
1-[(2R)-butan-2-yl]-1-[(2S)-butan-2-yl]-3-(2-ethylphenyl)urea

> <PUBCHEM_IUPAC_SYSTEMATIC_NAME>
1-[(2R)-butan-2-yl]-1-[(2S)-butan-2-yl]-3-(2-ethylphenyl)urea

> <PUBCHEM_IUPAC_TRADITIONAL_NAME>
3-(2-ethylphenyl)-1-[(1R)-1-methylpropyl]-1-[(1S)-1-methylpropyl]urea

> <PUBCHEM_IUPAC_INCHI>
InChI=1S/C17H28N2O/c1-6-13(4)19(14(5)7-2)17(20)18-16-12-10-9-11-15(16)8-3/h9-14H,6-8H2,1-5H3,(H,18,20)/t13-,14+

> <PUBCHEM_IUPAC_INCHIKEY>
MFBGFFVXNFUYHD-OKILXGFUSA-N

> <PUBCHEM_XLOGP3>
4

> <PUBCHEM_EXACT_MASS>
276.220164

> <PUBCHEM_MOLECULAR_FORMULA>
C17H28N2O

> <PUBCHEM_MOLECULAR_WEIGHT>
276.41702

> <PUBCHEM_OPENEYE_CAN_SMILES>
CCC1=CC=CC=C1NC(=O)N(C(C)CC)C(C)CC

> <PUBCHEM_OPENEYE_ISO_SMILES>
CCC1=CC=CC=C1NC(=O)N([C@H](C)CC)[C@@H](C)CC

> <PUBCHEM_CACTVS_TPSA>
32.3

> <PUBCHEM_MONOISOTOPIC_WEIGHT>
276.220164

> <PUBCHEM_TOTAL_CHARGE>
0

> <PUBCHEM_HEAVY_ATOM_COUNT>
20

> <PUBCHEM_ATOM_DEF_STEREO_COUNT>
2

> <PUBCHEM_ATOM_UDEF_STEREO_COUNT>
0

> <PUBCHEM_BOND_DEF_STEREO_COUNT>
0

> <PUBCHEM_BOND_UDEF_STEREO_COUNT>
0

> <PUBCHEM_ISOTOPIC_ATOM_COUNT>
0

> <PUBCHEM_COMPONENT_COUNT>
1

> <PUBCHEM_CACTVS_TAUTO_COUNT>
2

> <PUBCHEM_COORDINATE_TYPE>
1
5
255

> <PUBCHEM_BONDANNOTATIONS>
13  14  8
13  16  8
14  17  8
16  18  8
17  19  8
18  19  8
4  2  6
5  2  6

$$$$
