17411573
  -OEChem-11301217222D

 33 35  0     0  0  0  0  0  0999 V2000
    8.6907    0.0182    0.0000 O   0  0  0  0  0  0  0  0  0  0  0  0
    7.3991   -1.1358    0.0000 N   0  0  0  0  0  0  0  0  0  0  0  0
    4.5274    1.7248    0.0000 C   0  0  0  0  0  0  0  0  0  0  0  0
    5.3364    1.1370    0.0000 C   0  0  0  0  0  0  0  0  0  0  0  0
    5.0274    0.1859    0.0000 C   0  0  0  0  0  0  0  0  0  0  0  0
    3.7183    1.1370    0.0000 C   0  0  0  0  0  0  0  0  0  0  0  0
    4.0274    0.1859    0.0000 C   0  0  0  0  0  0  0  0  0  0  0  0
    5.7123   -0.5988    0.0000 C   0  0  0  0  0  0  0  0  0  0  0  0
    6.3518    1.3692    0.0000 C   0  0  0  0  0  0  0  0  0  0  0  0
    6.7328   -0.3901    0.0000 C   0  0  0  0  0  0  0  0  0  0  0  0
    2.7029    1.3692    0.0000 C   0  0  0  0  0  0  0  0  0  0  0  0
    3.3424   -0.5988    0.0000 C   0  0  0  0  0  0  0  0  0  0  0  0
    7.0547    0.6005    0.0000 C   0  0  0  0  0  0  0  0  0  0  0  0
    2.0000    0.6005    0.0000 C   0  0  0  0  0  0  0  0  0  0  0  0
    2.3219   -0.3901    0.0000 C   0  0  0  0  0  0  0  0  0  0  0  0
    8.3780   -0.9317    0.0000 C   0  0  0  0  0  0  0  0  0  0  0  0
    9.0443   -1.6774    0.0000 C   0  0  0  0  0  0  0  0  0  0  0  0
   10.0232   -1.4733    0.0000 C   0  0  0  0  0  0  0  0  0  0  0  0
    4.9422    2.1855    0.0000 H   0  0  0  0  0  0  0  0  0  0  0  0
    4.1125    2.1855    0.0000 H   0  0  0  0  0  0  0  0  0  0  0  0
    5.5139   -1.1862    0.0000 H   0  0  0  0  0  0  0  0  0  0  0  0
    6.5365    1.9610    0.0000 H   0  0  0  0  0  0  0  0  0  0  0  0
    2.5182    1.9610    0.0000 H   0  0  0  0  0  0  0  0  0  0  0  0
    3.5408   -1.1862    0.0000 H   0  0  0  0  0  0  0  0  0  0  0  0
    7.6607    0.7318    0.0000 H   0  0  0  0  0  0  0  0  0  0  0  0
    1.3940    0.7318    0.0000 H   0  0  0  0  0  0  0  0  0  0  0  0
    1.9088   -0.8525    0.0000 H   0  0  0  0  0  0  0  0  0  0  0  0
    7.2052   -1.7248    0.0000 H   0  0  0  0  0  0  0  0  0  0  0  0
    8.5172   -2.0039    0.0000 H   0  0  0  0  0  0  0  0  0  0  0  0
    9.2743   -2.2532    0.0000 H   0  0  0  0  0  0  0  0  0  0  0  0
   10.1498   -2.0802    0.0000 H   0  0  0  0  0  0  0  0  0  0  0  0
   10.6302   -1.3467    0.0000 H   0  0  0  0  0  0  0  0  0  0  0  0
    9.8967   -0.8663    0.0000 H   0  0  0  0  0  0  0  0  0  0  0  0
  1 16  2  0  0  0  0
  2 10  1  0  0  0  0
  2 16  1  0  0  0  0
  2 28  1  0  0  0  0
  3  4  1  0  0  0  0
  3  6  1  0  0  0  0
  3 19  1  0  0  0  0
  3 20  1  0  0  0  0
  4  5  2  0  0  0  0
  4  9  1  0  0  0  0
  5  7  1  0  0  0  0
  5  8  1  0  0  0  0
  6  7  1  0  0  0  0
  6 11  2  0  0  0  0
  7 12  2  0  0  0  0
  8 10  2  0  0  0  0
  8 21  1  0  0  0  0
  9 13  2  0  0  0  0
  9 22  1  0  0  0  0
 10 13  1  0  0  0  0
 11 14  1  0  0  0  0
 11 23  1  0  0  0  0
 12 15  1  0  0  0  0
 12 24  1  0  0  0  0
 13 25  1  0  0  0  0
 14 15  2  0  0  0  0
 14 26  1  0  0  0  0
 15 27  1  0  0  0  0
 16 17  1  0  0  0  0
 17 18  1  0  0  0  0
 17 29  1  0  0  0  0
 17 30  1  0  0  0  0
 18 31  1  0  0  0  0
 18 32  1  0  0  0  0
 18 33  1  0  0  0  0
M  END
> <PUBCHEM_COMPOUND_CID>
17411573

> <PUBCHEM_COMPOUND_CANONICALIZED>
1

> <PUBCHEM_CACTVS_COMPLEXITY>
314

> <PUBCHEM_CACTVS_HBOND_ACCEPTOR>
1

> <PUBCHEM_CACTVS_HBOND_DONOR>
1

> <PUBCHEM_CACTVS_ROTATABLE_BOND>
2

> <PUBCHEM_CACTVS_SUBSKEYS>
AAADccB6IAAAAAAAAAAAAAAAAAAAAYAAAAAwYAAAAAAAAGABQAAAHgAQAAAADAiBmAAywILAAACIAiVSUACCAAAhAgAIiAEAZIgIICLAkZGEIAhglADIyAcQgMAOiAAAQAAQAAAQAACAACAAAQAACAAAAA==

> <PUBCHEM_IUPAC_OPENEYE_NAME>
N-(9H-fluoren-3-yl)propanamide

> <PUBCHEM_IUPAC_CAS_NAME>
N-(9H-fluoren-3-yl)propanamide

> <PUBCHEM_IUPAC_NAME>
N-(9H-fluoren-3-yl)propanamide

> <PUBCHEM_IUPAC_SYSTEMATIC_NAME>
N-(9H-fluoren-3-yl)propanamide

> <PUBCHEM_IUPAC_TRADITIONAL_NAME>
N-(9H-fluoren-3-yl)propionamide

> <PUBCHEM_IUPAC_INCHI>
InChI=1S/C16H15NO/c1-2-16(18)17-13-8-7-12-9-11-5-3-4-6-14(11)15(12)10-13/h3-8,10H,2,9H2,1H3,(H,17,18)

> <PUBCHEM_IUPAC_INCHIKEY>
WJTJISOSTSFXTN-UHFFFAOYSA-N

> <PUBCHEM_XLOGP3>
4.1

> <PUBCHEM_EXACT_MASS>
237.115364

> <PUBCHEM_MOLECULAR_FORMULA>
C16H15NO

> <PUBCHEM_MOLECULAR_WEIGHT>
237.2964

> <PUBCHEM_OPENEYE_CAN_SMILES>
CCC(=O)NC1=CC2=C(CC3=CC=CC=C32)C=C1

> <PUBCHEM_OPENEYE_ISO_SMILES>
CCC(=O)NC1=CC2=C(CC3=CC=CC=C32)C=C1

> <PUBCHEM_CACTVS_TPSA>
29.1

> <PUBCHEM_MONOISOTOPIC_WEIGHT>
237.115364

> <PUBCHEM_TOTAL_CHARGE>
0

> <PUBCHEM_HEAVY_ATOM_COUNT>
18

> <PUBCHEM_ATOM_DEF_STEREO_COUNT>
0

> <PUBCHEM_ATOM_UDEF_STEREO_COUNT>
0

> <PUBCHEM_BOND_DEF_STEREO_COUNT>
0

> <PUBCHEM_BOND_UDEF_STEREO_COUNT>
0

> <PUBCHEM_ISOTOPIC_ATOM_COUNT>
0

> <PUBCHEM_COMPONENT_COUNT>
1

> <PUBCHEM_CACTVS_TAUTO_COUNT>
3

> <PUBCHEM_COORDINATE_TYPE>
1
5
255

> <PUBCHEM_BONDANNOTATIONS>
10  13  8
11  14  8
12  15  8
14  15  8
4  5  8
4  9  8
5  8  8
6  11  8
6  7  8
7  12  8
8  10  8
9  13  8

$$$$
17423010
  -OEChem-11301217222D

 43 46  0     0  0  0  0  0  0999 V2000
    6.6353   -0.8016    0.0000 O   0  0  0  0  0  0  0  0  0  0  0  0
    6.2781    0.8932    0.0000 N   0  0  0  0  0  0  0  0  0  0  0  0
    4.6783   -2.8236    0.0000 N   0  0  0  0  0  0  0  0  0  0  0  0
    7.5673    2.0499    0.0000 C   0  0  0  0  0  0  0  0  0  0  0  0
    7.3610    3.0284    0.0000 C   0  0  0  0  0  0  0  0  0  0  0  0
    6.6168    2.3606    0.0000 C   0  0  0  0  0  0  0  0  0  0  0  0
    7.2566    1.0994    0.0000 C   0  0  0  0  0  0  0  0  0  0  0  0
    8.5458    2.2561    0.0000 C   0  0  0  0  0  0  0  0  0  0  0  0
    9.2136    1.5118    0.0000 C   0  0  0  0  0  0  0  0  0  0  0  0
    8.8564    3.2066    0.0000 C   0  0  0  0  0  0  0  0  0  0  0  0
    5.9674   -0.0573    0.0000 C   0  0  0  0  0  0  0  0  0  0  0  0
   10.1921    1.7180    0.0000 C   0  0  0  0  0  0  0  0  0  0  0  0
    9.8349    3.4129    0.0000 C   0  0  0  0  0  0  0  0  0  0  0  0
    4.9889   -0.2636    0.0000 C   0  0  0  0  0  0  0  0  0  0  0  0
   10.5028    2.6686    0.0000 C   0  0  0  0  0  0  0  0  0  0  0  0
    4.6783   -1.2141    0.0000 C   0  0  0  0  0  0  0  0  0  0  0  0
    3.7320   -1.5188    0.0000 C   0  0  0  0  0  0  0  0  0  0  0  0
    5.2619   -2.0188    0.0000 C   0  0  0  0  0  0  0  0  0  0  0  0
    3.7320   -2.5188    0.0000 C   0  0  0  0  0  0  0  0  0  0  0  0
    2.8660   -1.0188    0.0000 C   0  0  0  0  0  0  0  0  0  0  0  0
    2.8660   -3.0188    0.0000 C   0  0  0  0  0  0  0  0  0  0  0  0
    2.0000   -1.5188    0.0000 C   0  0  0  0  0  0  0  0  0  0  0  0
    2.0000   -2.5188    0.0000 C   0  0  0  0  0  0  0  0  0  0  0  0
    6.1288    2.7431    0.0000 H   0  0  0  0  0  0  0  0  0  0  0  0
    6.3247    1.8136    0.0000 H   0  0  0  0  0  0  0  0  0  0  0  0
    7.9363    3.2597    0.0000 H   0  0  0  0  0  0  0  0  0  0  0  0
    7.0334    3.5548    0.0000 H   0  0  0  0  0  0  0  0  0  0  0  0
    7.2772    0.4797    0.0000 H   0  0  0  0  0  0  0  0  0  0  0  0
    7.8704    1.0120    0.0000 H   0  0  0  0  0  0  0  0  0  0  0  0
    5.8640    1.3546    0.0000 H   0  0  0  0  0  0  0  0  0  0  0  0
    9.0210    0.9225    0.0000 H   0  0  0  0  0  0  0  0  0  0  0  0
    8.4424    3.6681    0.0000 H   0  0  0  0  0  0  0  0  0  0  0  0
   10.6062    1.2566    0.0000 H   0  0  0  0  0  0  0  0  0  0  0  0
   10.0276    4.0022    0.0000 H   0  0  0  0  0  0  0  0  0  0  0  0
    4.9684    0.3561    0.0000 H   0  0  0  0  0  0  0  0  0  0  0  0
    4.3751   -0.1762    0.0000 H   0  0  0  0  0  0  0  0  0  0  0  0
   11.1095    2.7964    0.0000 H   0  0  0  0  0  0  0  0  0  0  0  0
    5.8819   -2.0188    0.0000 H   0  0  0  0  0  0  0  0  0  0  0  0
    4.8709   -3.4129    0.0000 H   0  0  0  0  0  0  0  0  0  0  0  0
    2.8660   -0.3988    0.0000 H   0  0  0  0  0  0  0  0  0  0  0  0
    2.8660   -3.6388    0.0000 H   0  0  0  0  0  0  0  0  0  0  0  0
    1.4631   -1.2088    0.0000 H   0  0  0  0  0  0  0  0  0  0  0  0
    1.4631   -2.8288    0.0000 H   0  0  0  0  0  0  0  0  0  0  0  0
  1 11  2  0  0  0  0
  2  7  1  0  0  0  0
  2 11  1  0  0  0  0
  2 30  1  0  0  0  0
  3 18  1  0  0  0  0
  3 19  1  0  0  0  0
  3 39  1  0  0  0  0
  4  5  1  0  0  0  0
  4  6  1  0  0  0  0
  4  7  1  0  0  0  0
  4  8  1  0  0  0  0
  5  6  1  0  0  0  0
  5 26  1  0  0  0  0
  5 27  1  0  0  0  0
  6 24  1  0  0  0  0
  6 25  1  0  0  0  0
  7 28  1  0  0  0  0
  7 29  1  0  0  0  0
  8  9  2  0  0  0  0
  8 10  1  0  0  0  0
  9 12  1  0  0  0  0
  9 31  1  0  0  0  0
 10 13  2  0  0  0  0
 10 32  1  0  0  0  0
 11 14  1  0  0  0  0
 12 15  2  0  0  0  0
 12 33  1  0  0  0  0
 13 15  1  0  0  0  0
 13 34  1  0  0  0  0
 14 16  1  0  0  0  0
 14 35  1  0  0  0  0
 14 36  1  0  0  0  0
 15 37  1  0  0  0  0
 16 17  1  0  0  0  0
 16 18  2  0  0  0  0
 17 19  1  0  0  0  0
 17 20  2  0  0  0  0
 18 38  1  0  0  0  0
 19 21  2  0  0  0  0
 20 22  1  0  0  0  0
 20 40  1  0  0  0  0
 21 23  1  0  0  0  0
 21 41  1  0  0  0  0
 22 23  2  0  0  0  0
 22 42  1  0  0  0  0
 23 43  1  0  0  0  0
M  END
> <PUBCHEM_COMPOUND_CID>
17423010

> <PUBCHEM_COMPOUND_CANONICALIZED>
1

> <PUBCHEM_CACTVS_COMPLEXITY>
425

> <PUBCHEM_CACTVS_HBOND_ACCEPTOR>
1

> <PUBCHEM_CACTVS_HBOND_DONOR>
2

> <PUBCHEM_CACTVS_ROTATABLE_BOND>
5

> <PUBCHEM_CACTVS_SUBSKEYS>
AAADceB7IAAAAAAAAAAAAAAAGAAAAWAAAAAwYAAAAAAAAFgB9AAAHgAQAAAADgjBngQ8wPLJkACoAzV3VACCgCAxAiAI2aE4ZJgIIPLAlZGEIAhglgDIyAccicCfgAAAAAACAAAAAAAAAAQAAAAAAAAAAA==

> <PUBCHEM_IUPAC_OPENEYE_NAME>
2-(1H-indol-3-yl)-N-[(1-phenylcyclopropyl)methyl]acetamide

> <PUBCHEM_IUPAC_CAS_NAME>
2-(1H-indol-3-yl)-N-[(1-phenylcyclopropyl)methyl]acetamide

> <PUBCHEM_IUPAC_NAME>
2-(1H-indol-3-yl)-N-[(1-phenylcyclopropyl)methyl]acetamide

> <PUBCHEM_IUPAC_SYSTEMATIC_NAME>
2-(1H-indol-3-yl)-N-[(1-phenylcyclopropyl)methyl]ethanamide

> <PUBCHEM_IUPAC_TRADITIONAL_NAME>
2-(1H-indol-3-yl)-N-[(1-phenylcyclopropyl)methyl]acetamide

> <PUBCHEM_IUPAC_INCHI>
InChI=1S/C20H20N2O/c23-19(12-15-13-21-18-9-5-4-8-17(15)18)22-14-20(10-11-20)16-6-2-1-3-7-16/h1-9,13,21H,10-12,14H2,(H,22,23)

> <PUBCHEM_IUPAC_INCHIKEY>
GHTCLBLXFNJPLI-UHFFFAOYSA-N

> <PUBCHEM_XLOGP3>
3.4

> <PUBCHEM_EXACT_MASS>
304.157563

> <PUBCHEM_MOLECULAR_FORMULA>
C20H20N2O

> <PUBCHEM_MOLECULAR_WEIGHT>
304.3856

> <PUBCHEM_OPENEYE_CAN_SMILES>
C1CC1(CNC(=O)CC2=CNC3=CC=CC=C32)C4=CC=CC=C4

> <PUBCHEM_OPENEYE_ISO_SMILES>
C1CC1(CNC(=O)CC2=CNC3=CC=CC=C32)C4=CC=CC=C4

> <PUBCHEM_CACTVS_TPSA>
44.9

> <PUBCHEM_MONOISOTOPIC_WEIGHT>
304.157563

> <PUBCHEM_TOTAL_CHARGE>
0

> <PUBCHEM_HEAVY_ATOM_COUNT>
23

> <PUBCHEM_ATOM_DEF_STEREO_COUNT>
0

> <PUBCHEM_ATOM_UDEF_STEREO_COUNT>
0

> <PUBCHEM_BOND_DEF_STEREO_COUNT>
0

> <PUBCHEM_BOND_UDEF_STEREO_COUNT>
0

> <PUBCHEM_ISOTOPIC_ATOM_COUNT>
0

> <PUBCHEM_COMPONENT_COUNT>
1

> <PUBCHEM_CACTVS_TAUTO_COUNT>
2

> <PUBCHEM_COORDINATE_TYPE>
1
5
255

> <PUBCHEM_BONDANNOTATIONS>
10  13  8
12  15  8
13  15  8
16  17  8
16  18  8
17  19  8
17  20  8
19  21  8
20  22  8
21  23  8
22  23  8
3  18  8
3  19  8
8  10  8
8  9  8
9  12  8

$$$$
17424529
  -OEChem-11301217222D

 29 31  0     1  0  0  0  0  0999 V2000
    3.3660   -3.2003    0.0000 Cl  0  0  0  0  0  0  0  0  0  0  0  0
    4.2320   -1.7003    0.0000 Cl  0  0  0  0  0  0  0  0  0  0  0  0
    2.0000    0.1657    0.0000 O   0  0  0  0  0  0  0  0  0  0  0  0
    3.7320    0.1657    0.0000 N   0  0  0  0  0  0  0  0  0  0  0  0
    2.8660   -1.3343    0.0000 C   0  0  3  0  0  0  0  0  0  0  0  0
    3.3660   -2.2003    0.0000 C   0  0  0  0  0  0  0  0  0  0  0  0
    2.3660   -2.2003    0.0000 C   0  0  0  0  0  0  0  0  0  0  0  0
    2.8660   -0.3343    0.0000 C   0  0  0  0  0  0  0  0  0  0  0  0
    3.7320    1.1657    0.0000 C   0  0  0  0  0  0  0  0  0  0  0  0
    4.5981    1.6657    0.0000 C   0  0  0  0  0  0  0  0  0  0  0  0
    4.5981    2.6657    0.0000 C   0  0  0  0  0  0  0  0  0  0  0  0
    2.8660    1.6657    0.0000 C   0  0  0  0  0  0  0  0  0  0  0  0
    5.4920    1.1310    0.0000 C   0  0  0  0  0  0  0  0  0  0  0  0
    3.7320    3.1657    0.0000 C   0  0  0  0  0  0  0  0  0  0  0  0
    2.8660    2.6657    0.0000 C   0  0  0  0  0  0  0  0  0  0  0  0
    5.4920    3.2003    0.0000 C   0  0  0  0  0  0  0  0  0  0  0  0
    6.3981    1.6449    0.0000 C   0  0  0  0  0  0  0  0  0  0  0  0
    6.3981    2.6865    0.0000 C   0  0  0  0  0  0  0  0  0  0  0  0
    3.4649   -1.1738    0.0000 H   0  0  0  0  0  0  0  0  0  0  0  0
    1.7834   -1.9883    0.0000 H   0  0  0  0  0  0  0  0  0  0  0  0
    2.2584   -2.8109    0.0000 H   0  0  0  0  0  0  0  0  0  0  0  0
    4.2690   -0.1443    0.0000 H   0  0  0  0  0  0  0  0  0  0  0  0
    2.3291    1.3557    0.0000 H   0  0  0  0  0  0  0  0  0  0  0  0
    5.4848    0.5111    0.0000 H   0  0  0  0  0  0  0  0  0  0  0  0
    3.7320    3.7857    0.0000 H   0  0  0  0  0  0  0  0  0  0  0  0
    2.3291    2.9757    0.0000 H   0  0  0  0  0  0  0  0  0  0  0  0
    5.4848    3.8203    0.0000 H   0  0  0  0  0  0  0  0  0  0  0  0
    6.9338    1.3328    0.0000 H   0  0  0  0  0  0  0  0  0  0  0  0
    6.9338    2.9986    0.0000 H   0  0  0  0  0  0  0  0  0  0  0  0
  1  6  1  0  0  0  0
  2  6  1  0  0  0  0
  3  8  2  0  0  0  0
  4  8  1  0  0  0  0
  4  9  1  0  0  0  0
  4 22  1  0  0  0  0
  5  6  1  0  0  0  0
  5  7  1  0  0  0  0
  5  8  1  0  0  0  0
  5 19  1  0  0  0  0
  6  7  1  0  0  0  0
  7 20  1  0  0  0  0
  7 21  1  0  0  0  0
  9 10  1  0  0  0  0
  9 12  2  0  0  0  0
 10 11  1  0  0  0  0
 10 13  2  0  0  0  0
 11 14  1  0  0  0  0
 11 16  2  0  0  0  0
 12 15  1  0  0  0  0
 12 23  1  0  0  0  0
 13 17  1  0  0  0  0
 13 24  1  0  0  0  0
 14 15  2  0  0  0  0
 14 25  1  0  0  0  0
 15 26  1  0  0  0  0
 16 18  1  0  0  0  0
 16 27  1  0  0  0  0
 17 18  2  0  0  0  0
 17 28  1  0  0  0  0
 18 29  1  0  0  0  0
M  END
> <PUBCHEM_COMPOUND_CID>
17424529

> <PUBCHEM_COMPOUND_CANONICALIZED>
1

> <PUBCHEM_CACTVS_COMPLEXITY>
345

> <PUBCHEM_CACTVS_HBOND_ACCEPTOR>
1

> <PUBCHEM_CACTVS_HBOND_DONOR>
1

> <PUBCHEM_CACTVS_ROTATABLE_BOND>
2

> <PUBCHEM_CACTVS_SUBSKEYS>
AAADccByIAAGAAAAAAAAAAAAGAAAAAAAAAAwYAAAAAAAAADBUAAAHgIQAAAADQqBmIAwwMLAAACIAiVSUACCAAAhAgAIiAEAZogIIDLBkZGEIAhglADIyAcQgIAOgAAAQAASAAAAAACAACQAAAAAAAAAAA==

> <PUBCHEM_IUPAC_OPENEYE_NAME>
2,2-dichloro-N-(1-naphthyl)cyclopropanecarboxamide

> <PUBCHEM_IUPAC_CAS_NAME>
2,2-dichloro-N-(1-naphthalenyl)-1-cyclopropanecarboxamide

> <PUBCHEM_IUPAC_NAME>
2,2-dichloro-N-naphthalen-1-ylcyclopropane-1-carboxamide

> <PUBCHEM_IUPAC_SYSTEMATIC_NAME>
2,2-bis(chloranyl)-N-naphthalen-1-yl-cyclopropane-1-carboxamide

> <PUBCHEM_IUPAC_TRADITIONAL_NAME>
2,2-dichloro-N-(1-naphthyl)cyclopropanecarboxamide

> <PUBCHEM_IUPAC_INCHI>
InChI=1S/C14H11Cl2NO/c15-14(16)8-11(14)13(18)17-12-7-3-5-9-4-1-2-6-10(9)12/h1-7,11H,8H2,(H,17,18)

> <PUBCHEM_IUPAC_INCHIKEY>
XHBPJJRKUIZBIL-UHFFFAOYSA-N

> <PUBCHEM_XLOGP3>
2.9

> <PUBCHEM_EXACT_MASS>
279.021769

> <PUBCHEM_MOLECULAR_FORMULA>
C14H11Cl2NO

> <PUBCHEM_MOLECULAR_WEIGHT>
280.14924

> <PUBCHEM_OPENEYE_CAN_SMILES>
C1C(C1(Cl)Cl)C(=O)NC2=CC=CC3=CC=CC=C32

> <PUBCHEM_OPENEYE_ISO_SMILES>
C1C(C1(Cl)Cl)C(=O)NC2=CC=CC3=CC=CC=C32

> <PUBCHEM_CACTVS_TPSA>
29.1

> <PUBCHEM_MONOISOTOPIC_WEIGHT>
279.021769

> <PUBCHEM_TOTAL_CHARGE>
0

> <PUBCHEM_HEAVY_ATOM_COUNT>
18

> <PUBCHEM_ATOM_DEF_STEREO_COUNT>
0

> <PUBCHEM_ATOM_UDEF_STEREO_COUNT>
1

> <PUBCHEM_BOND_DEF_STEREO_COUNT>
0

> <PUBCHEM_BOND_UDEF_STEREO_COUNT>
0

> <PUBCHEM_ISOTOPIC_ATOM_COUNT>
0

> <PUBCHEM_COMPONENT_COUNT>
1

> <PUBCHEM_CACTVS_TAUTO_COUNT>
3

> <PUBCHEM_COORDINATE_TYPE>
1
5
255

> <PUBCHEM_BONDANNOTATIONS>
10  11  8
10  13  8
11  14  8
11  16  8
12  15  8
13  17  8
14  15  8
16  18  8
17  18  8
5  8  3
9  10  8
9  12  8

$$$$
