50955124
  -OEChem-11301217592D

 36 37  0     0  0  0  0  0  0999 V2000
    2.0000   -3.0000    0.0000 O   0  0  0  0  0  0  0  0  0  0  0  0
    3.7320   -3.0000    0.0000 N   0  0  0  0  0  0  0  0  0  0  0  0
    4.5981   -1.5000    0.0000 C   0  0  0  0  0  0  0  0  0  0  0  0
    3.7320   -2.0000    0.0000 C   0  0  0  0  0  0  0  0  0  0  0  0
    5.4641    0.0000    0.0000 C   0  0  0  0  0  0  0  0  0  0  0  0
    4.5981   -0.5000    0.0000 C   0  0  0  0  0  0  0  0  0  0  0  0
    5.4641   -2.0000    0.0000 C   0  0  0  0  0  0  0  0  0  0  0  0
    6.3301   -0.5000    0.0000 C   0  0  0  0  0  0  0  0  0  0  0  0
    6.3301   -1.5000    0.0000 C   0  0  0  0  0  0  0  0  0  0  0  0
    5.4641    1.0000    0.0000 C   0  0  0  0  0  0  0  0  0  0  0  0
    6.3301    1.5000    0.0000 C   0  0  0  0  0  0  0  0  0  0  0  0
    6.3301    2.5000    0.0000 C   0  0  0  0  0  0  0  0  0  0  0  0
    2.8660   -3.5000    0.0000 C   0  0  0  0  0  0  0  0  0  0  0  0
    7.1962    3.0000    0.0000 C   0  0  0  0  0  0  0  0  0  0  0  0
    5.4641    3.0000    0.0000 C   0  0  0  0  0  0  0  0  0  0  0  0
    7.1962    4.0000    0.0000 C   0  0  0  0  0  0  0  0  0  0  0  0
    5.4641    4.0000    0.0000 C   0  0  0  0  0  0  0  0  0  0  0  0
    6.3301    4.5000    0.0000 C   0  0  0  0  0  0  0  0  0  0  0  0
    2.8660   -4.5000    0.0000 C   0  0  0  0  0  0  0  0  0  0  0  0
    3.5200   -1.4174    0.0000 H   0  0  0  0  0  0  0  0  0  0  0  0
    3.1215   -2.1077    0.0000 H   0  0  0  0  0  0  0  0  0  0  0  0
    4.0611   -0.1900    0.0000 H   0  0  0  0  0  0  0  0  0  0  0  0
    5.4641   -2.6200    0.0000 H   0  0  0  0  0  0  0  0  0  0  0  0
    6.8671   -0.1900    0.0000 H   0  0  0  0  0  0  0  0  0  0  0  0
    6.8671   -1.8100    0.0000 H   0  0  0  0  0  0  0  0  0  0  0  0
    4.9272    1.3100    0.0000 H   0  0  0  0  0  0  0  0  0  0  0  0
    4.2690   -3.3100    0.0000 H   0  0  0  0  0  0  0  0  0  0  0  0
    6.8671    1.1900    0.0000 H   0  0  0  0  0  0  0  0  0  0  0  0
    7.7331    2.6900    0.0000 H   0  0  0  0  0  0  0  0  0  0  0  0
    4.9272    2.6900    0.0000 H   0  0  0  0  0  0  0  0  0  0  0  0
    7.7331    4.3100    0.0000 H   0  0  0  0  0  0  0  0  0  0  0  0
    4.9272    4.3100    0.0000 H   0  0  0  0  0  0  0  0  0  0  0  0
    6.3301    5.1200    0.0000 H   0  0  0  0  0  0  0  0  0  0  0  0
    2.2460   -4.5000    0.0000 H   0  0  0  0  0  0  0  0  0  0  0  0
    2.8660   -5.1200    0.0000 H   0  0  0  0  0  0  0  0  0  0  0  0
    3.4860   -4.5000    0.0000 H   0  0  0  0  0  0  0  0  0  0  0  0
  1 13  2  0  0  0  0
  2  4  1  0  0  0  0
  2 13  1  0  0  0  0
  2 27  1  0  0  0  0
  3  4  1  0  0  0  0
  3  6  2  0  0  0  0
  3  7  1  0  0  0  0
  4 20  1  0  0  0  0
  4 21  1  0  0  0  0
  5  6  1  0  0  0  0
  5  8  2  0  0  0  0
  5 10  1  0  0  0  0
  6 22  1  0  0  0  0
  7  9  2  0  0  0  0
  7 23  1  0  0  0  0
  8  9  1  0  0  0  0
  8 24  1  0  0  0  0
  9 25  1  0  0  0  0
 10 11  2  0  0  0  0
 10 26  1  0  0  0  0
 11 12  1  0  0  0  0
 11 28  1  0  0  0  0
 12 14  2  0  0  0  0
 12 15  1  0  0  0  0
 13 19  1  0  0  0  0
 14 16  1  0  0  0  0
 14 29  1  0  0  0  0
 15 17  2  0  0  0  0
 15 30  1  0  0  0  0
 16 18  2  0  0  0  0
 16 31  1  0  0  0  0
 17 18  1  0  0  0  0
 17 32  1  0  0  0  0
 18 33  1  0  0  0  0
 19 34  1  0  0  0  0
 19 35  1  0  0  0  0
 19 36  1  0  0  0  0
M  END
> <PUBCHEM_COMPOUND_CID>
50955124

> <PUBCHEM_COMPOUND_CANONICALIZED>
1

> <PUBCHEM_CACTVS_COMPLEXITY>
304

> <PUBCHEM_CACTVS_HBOND_ACCEPTOR>
1

> <PUBCHEM_CACTVS_HBOND_DONOR>
1

> <PUBCHEM_CACTVS_ROTATABLE_BOND>
4

> <PUBCHEM_CACTVS_SUBSKEYS>
AAADceB6IAAAAAAAAAAAAAAAAAAAAAAAAAAwYAAAAAAAAAABQAAAHgAQAAAADADBmAQyAILAAACIAiFSEACCAAAgAAAIiIAIBIgIICKAkRGEIAhglgCIiAcQgEAOAAACAAAAAAAAAAQAAAAAAAAAAAAAAA==

> <PUBCHEM_IUPAC_OPENEYE_NAME>
N-[[3-[(E)-styryl]phenyl]methyl]acetamide

> <PUBCHEM_IUPAC_CAS_NAME>
N-[[3-[(E)-2-phenylethenyl]phenyl]methyl]acetamide

> <PUBCHEM_IUPAC_NAME>
N-[[3-[(E)-2-phenylethenyl]phenyl]methyl]acetamide

> <PUBCHEM_IUPAC_SYSTEMATIC_NAME>
N-[[3-[(E)-2-phenylethenyl]phenyl]methyl]ethanamide

> <PUBCHEM_IUPAC_TRADITIONAL_NAME>
N-[3-[(E)-styryl]benzyl]acetamide

> <PUBCHEM_IUPAC_INCHI>
InChI=1S/C17H17NO/c1-14(19)18-13-17-9-5-8-16(12-17)11-10-15-6-3-2-4-7-15/h2-12H,13H2,1H3,(H,18,19)/b11-10+

> <PUBCHEM_IUPAC_INCHIKEY>
HYMPXDJHKDVHMZ-ZHACJKMWSA-N

> <PUBCHEM_XLOGP3>
3.2

> <PUBCHEM_EXACT_MASS>
251.131014

> <PUBCHEM_MOLECULAR_FORMULA>
C17H17NO

> <PUBCHEM_MOLECULAR_WEIGHT>
251.32298

> <PUBCHEM_OPENEYE_CAN_SMILES>
CC(=O)NCC1=CC=CC(=C1)C=CC2=CC=CC=C2

> <PUBCHEM_OPENEYE_ISO_SMILES>
CC(=O)NCC1=CC=CC(=C1)/C=C/C2=CC=CC=C2

> <PUBCHEM_CACTVS_TPSA>
29.1

> <PUBCHEM_MONOISOTOPIC_WEIGHT>
251.131014

> <PUBCHEM_TOTAL_CHARGE>
0

> <PUBCHEM_HEAVY_ATOM_COUNT>
19

> <PUBCHEM_ATOM_DEF_STEREO_COUNT>
0

> <PUBCHEM_ATOM_UDEF_STEREO_COUNT>
0

> <PUBCHEM_BOND_DEF_STEREO_COUNT>
1

> <PUBCHEM_BOND_UDEF_STEREO_COUNT>
0

> <PUBCHEM_ISOTOPIC_ATOM_COUNT>
0

> <PUBCHEM_COMPONENT_COUNT>
1

> <PUBCHEM_CACTVS_TAUTO_COUNT>
2

> <PUBCHEM_COORDINATE_TYPE>
1
5
255

> <PUBCHEM_BONDANNOTATIONS>
12  14  8
12  15  8
14  16  8
15  17  8
16  18  8
17  18  8
3  6  8
3  7  8
5  6  8
5  8  8
7  9  8
8  9  8

$$$$
