61505082
  -OEChem-10201218422D

 27 28  0     0  0  0  0  0  0999 V2000
    3.7320   -2.5194    0.0000 O   0  0  0  0  0  0  0  0  0  0  0  0
    3.7320    1.4806    0.0000 N   0  0  0  0  0  0  0  0  0  0  0  0
    3.7320    0.4806    0.0000 C   0  0  0  0  0  0  0  0  0  0  0  0
    2.8660   -1.0194    0.0000 C   0  0  0  0  0  0  0  0  0  0  0  0
    2.8660   -0.0194    0.0000 C   0  0  0  0  0  0  0  0  0  0  0  0
    3.7320   -1.5194    0.0000 C   0  0  0  0  0  0  0  0  0  0  0  0
    4.5981   -0.0194    0.0000 C   0  0  0  0  0  0  0  0  0  0  0  0
    4.5981   -1.0194    0.0000 C   0  0  0  0  0  0  0  0  0  0  0  0
    4.5411    2.0684    0.0000 C   0  0  0  0  0  0  0  0  0  0  0  0
    2.9230    2.0684    0.0000 C   0  0  0  0  0  0  0  0  0  0  0  0
    2.0000   -1.5194    0.0000 C   0  0  0  0  0  0  0  0  0  0  0  0
    3.2320    3.0194    0.0000 C   0  0  0  0  0  0  0  0  0  0  0  0
    4.2320    3.0194    0.0000 C   0  0  0  0  0  0  0  0  0  0  0  0
    4.5981   -3.0194    0.0000 C   0  0  0  0  0  0  0  0  0  0  0  0
    2.3291    0.2906    0.0000 H   0  0  0  0  0  0  0  0  0  0  0  0
    5.1350    0.2906    0.0000 H   0  0  0  0  0  0  0  0  0  0  0  0
    5.1350   -1.3294    0.0000 H   0  0  0  0  0  0  0  0  0  0  0  0
    5.1307    1.8768    0.0000 H   0  0  0  0  0  0  0  0  0  0  0  0
    2.3334    1.8768    0.0000 H   0  0  0  0  0  0  0  0  0  0  0  0
    1.6900   -0.9825    0.0000 H   0  0  0  0  0  0  0  0  0  0  0  0
    1.4631   -1.8294    0.0000 H   0  0  0  0  0  0  0  0  0  0  0  0
    2.3100   -2.0564    0.0000 H   0  0  0  0  0  0  0  0  0  0  0  0
    4.5965    3.5210    0.0000 H   0  0  0  0  0  0  0  0  0  0  0  0
    2.8676    3.5210    0.0000 H   0  0  0  0  0  0  0  0  0  0  0  0
    4.2881   -3.5564    0.0000 H   0  0  0  0  0  0  0  0  0  0  0  0
    5.1350   -3.3294    0.0000 H   0  0  0  0  0  0  0  0  0  0  0  0
    4.9081   -2.4825    0.0000 H   0  0  0  0  0  0  0  0  0  0  0  0
  1  6  1  0  0  0  0
  1 14  1  0  0  0  0
  2  3  1  0  0  0  0
  2  9  1  0  0  0  0
  2 10  1  0  0  0  0
  3  5  2  0  0  0  0
  3  7  1  0  0  0  0
  4  5  1  0  0  0  0
  4  6  2  0  0  0  0
  4 11  1  0  0  0  0
  5 15  1  0  0  0  0
  6  8  1  0  0  0  0
  7  8  2  0  0  0  0
  7 16  1  0  0  0  0
  8 17  1  0  0  0  0
  9 13  2  0  0  0  0
  9 18  1  0  0  0  0
 10 12  2  0  0  0  0
 10 19  1  0  0  0  0
 11 20  1  0  0  0  0
 11 21  1  0  0  0  0
 11 22  1  0  0  0  0
 12 13  1  0  0  0  0
 12 24  1  0  0  0  0
 13 23  1  0  0  0  0
 14 25  1  0  0  0  0
 14 26  1  0  0  0  0
 14 27  1  0  0  0  0
M  END
> <PUBCHEM_COMPOUND_CID>
61505082

> <PUBCHEM_COMPOUND_CANONICALIZED>
1

> <PUBCHEM_CACTVS_COMPLEXITY>
177

> <PUBCHEM_CACTVS_HBOND_ACCEPTOR>
1

> <PUBCHEM_CACTVS_HBOND_DONOR>
0

> <PUBCHEM_CACTVS_ROTATABLE_BOND>
2

> <PUBCHEM_CACTVS_SUBSKEYS>
AAADccByIAAAAAAAAAAAAAAAAAAAAWAAAAAwAAAAAAAAAAABwAAAHgAAAAAADAzBmgY+xpMMFACgAjRnRACCiCAxIiAI2CA+bJgMJuLEsZuEMChkwBHI6AewwCAOAEAAQAAIAAAAgACAABAAAAAAAAAAAA==

> <PUBCHEM_IUPAC_OPENEYE_NAME>
1-(4-methoxy-3-methyl-phenyl)pyrrole

> <PUBCHEM_IUPAC_CAS_NAME>
1-(4-methoxy-3-methylphenyl)pyrrole

> <PUBCHEM_IUPAC_NAME>
1-(4-methoxy-3-methylphenyl)pyrrole

> <PUBCHEM_IUPAC_SYSTEMATIC_NAME>
1-(4-methoxy-3-methyl-phenyl)pyrrole

> <PUBCHEM_IUPAC_TRADITIONAL_NAME>
1-(4-methoxy-3-methyl-phenyl)pyrrole

> <PUBCHEM_IUPAC_INCHI>
InChI=1S/C12H13NO/c1-10-9-11(5-6-12(10)14-2)13-7-3-4-8-13/h3-9H,1-2H3

> <PUBCHEM_IUPAC_INCHIKEY>
LBSCVKCZBMSNHO-UHFFFAOYSA-N

> <PUBCHEM_XLOGP3>
3.2

> <PUBCHEM_EXACT_MASS>
187.099714

> <PUBCHEM_MOLECULAR_FORMULA>
C12H13NO

> <PUBCHEM_MOLECULAR_WEIGHT>
187.23772

> <PUBCHEM_OPENEYE_CAN_SMILES>
CC1=C(C=CC(=C1)N2C=CC=C2)OC

> <PUBCHEM_OPENEYE_ISO_SMILES>
CC1=C(C=CC(=C1)N2C=CC=C2)OC

> <PUBCHEM_CACTVS_TPSA>
14.2

> <PUBCHEM_MONOISOTOPIC_WEIGHT>
187.099714

> <PUBCHEM_TOTAL_CHARGE>
0

> <PUBCHEM_HEAVY_ATOM_COUNT>
14

> <PUBCHEM_ATOM_DEF_STEREO_COUNT>
0

> <PUBCHEM_ATOM_UDEF_STEREO_COUNT>
0

> <PUBCHEM_BOND_DEF_STEREO_COUNT>
0

> <PUBCHEM_BOND_UDEF_STEREO_COUNT>
0

> <PUBCHEM_ISOTOPIC_ATOM_COUNT>
0

> <PUBCHEM_COMPONENT_COUNT>
1

> <PUBCHEM_CACTVS_TAUTO_COUNT>
1

> <PUBCHEM_COORDINATE_TYPE>
1
5
255

> <PUBCHEM_BONDANNOTATIONS>
10  12  8
12  13  8
2  10  8
2  9  8
3  5  8
3  7  8
4  5  8
4  6  8
6  8  8
7  8  8
9  13  8

$$$$
61510051
  -OEChem-10201218422D

 45 47  0     0  0  0  0  0  0999 V2000
    4.5981   -0.8030    0.0000 O   0  0  0  0  0  0  0  0  0  0  0  0
    2.8660   -0.8030    0.0000 N   0  0  0  0  0  0  0  0  0  0  0  0
    5.5443   -4.1077    0.0000 N   0  0  0  0  0  0  0  0  0  0  0  0
    2.8660    2.1970    0.0000 C   0  0  0  0  0  0  0  0  0  0  0  0
    3.7320    1.6970    0.0000 C   0  0  0  0  0  0  0  0  0  0  0  0
    2.0000    1.6970    0.0000 C   0  0  0  0  0  0  0  0  0  0  0  0
    2.8660    0.1970    0.0000 C   0  0  0  0  0  0  0  0  0  0  0  0
    3.7320    0.6970    0.0000 C   0  0  0  0  0  0  0  0  0  0  0  0
    2.0000    0.6970    0.0000 C   0  0  0  0  0  0  0  0  0  0  0  0
    2.8660    3.1970    0.0000 C   0  0  0  0  0  0  0  0  0  0  0  0
    2.0000    3.6970    0.0000 C   0  0  0  0  0  0  0  0  0  0  0  0
    3.7320   -1.3030    0.0000 C   0  0  0  0  0  0  0  0  0  0  0  0
    2.0000    4.6970    0.0000 C   0  0  0  0  0  0  0  0  0  0  0  0
    3.7320   -2.3030    0.0000 C   0  0  0  0  0  0  0  0  0  0  0  0
    4.5981   -2.8030    0.0000 C   0  0  0  0  0  0  0  0  0  0  0  0
    2.8660   -2.8030    0.0000 C   0  0  0  0  0  0  0  0  0  0  0  0
    4.5981   -3.8030    0.0000 C   0  0  0  0  0  0  0  0  0  0  0  0
    5.5443   -2.4982    0.0000 C   0  0  0  0  0  0  0  0  0  0  0  0
    2.8660   -3.8030    0.0000 C   0  0  0  0  0  0  0  0  0  0  0  0
    3.7320   -4.3030    0.0000 C   0  0  0  0  0  0  0  0  0  0  0  0
    6.1279   -3.3030    0.0000 C   0  0  0  0  0  0  0  0  0  0  0  0
    3.4030    2.5070    0.0000 H   0  0  0  0  0  0  0  0  0  0  0  0
    1.7880    2.2796    0.0000 H   0  0  0  0  0  0  0  0  0  0  0  0
    1.3894    1.5894    0.0000 H   0  0  0  0  0  0  0  0  0  0  0  0
    4.3426    1.5894    0.0000 H   0  0  0  0  0  0  0  0  0  0  0  0
    3.9441    2.2796    0.0000 H   0  0  0  0  0  0  0  0  0  0  0  0
    3.4030   -0.1130    0.0000 H   0  0  0  0  0  0  0  0  0  0  0  0
    1.3894    0.8047    0.0000 H   0  0  0  0  0  0  0  0  0  0  0  0
    1.7880    0.1144    0.0000 H   0  0  0  0  0  0  0  0  0  0  0  0
    3.9441    0.1144    0.0000 H   0  0  0  0  0  0  0  0  0  0  0  0
    4.3426    0.8047    0.0000 H   0  0  0  0  0  0  0  0  0  0  0  0
    3.4766    3.0894    0.0000 H   0  0  0  0  0  0  0  0  0  0  0  0
    3.0781    3.7796    0.0000 H   0  0  0  0  0  0  0  0  0  0  0  0
    2.3291   -1.1130    0.0000 H   0  0  0  0  0  0  0  0  0  0  0  0
    1.3894    3.8047    0.0000 H   0  0  0  0  0  0  0  0  0  0  0  0
    1.7880    3.1144    0.0000 H   0  0  0  0  0  0  0  0  0  0  0  0
    2.6200    4.6970    0.0000 H   0  0  0  0  0  0  0  0  0  0  0  0
    2.0000    5.3170    0.0000 H   0  0  0  0  0  0  0  0  0  0  0  0
    1.3800    4.6970    0.0000 H   0  0  0  0  0  0  0  0  0  0  0  0
    2.3291   -2.4930    0.0000 H   0  0  0  0  0  0  0  0  0  0  0  0
    5.7369   -1.9089    0.0000 H   0  0  0  0  0  0  0  0  0  0  0  0
    2.3291   -4.1130    0.0000 H   0  0  0  0  0  0  0  0  0  0  0  0
    3.7320   -4.9230    0.0000 H   0  0  0  0  0  0  0  0  0  0  0  0
    5.7369   -4.6970    0.0000 H   0  0  0  0  0  0  0  0  0  0  0  0
    6.7479   -3.3030    0.0000 H   0  0  0  0  0  0  0  0  0  0  0  0
  1 12  2  0  0  0  0
  2  7  1  0  0  0  0
  2 12  1  0  0  0  0
  2 34  1  0  0  0  0
  3 17  1  0  0  0  0
  3 21  1  0  0  0  0
  3 44  1  0  0  0  0
  4  5  1  0  0  0  0
  4  6  1  0  0  0  0
  4 10  1  0  0  0  0
  4 22  1  0  0  0  0
  5  8  1  0  0  0  0
  5 25  1  0  0  0  0
  5 26  1  0  0  0  0
  6  9  1  0  0  0  0
  6 23  1  0  0  0  0
  6 24  1  0  0  0  0
  7  8  1  0  0  0  0
  7  9  1  0  0  0  0
  7 27  1  0  0  0  0
  8 30  1  0  0  0  0
  8 31  1  0  0  0  0
  9 28  1  0  0  0  0
  9 29  1  0  0  0  0
 10 11  1  0  0  0  0
 10 32  1  0  0  0  0
 10 33  1  0  0  0  0
 11 13  1  0  0  0  0
 11 35  1  0  0  0  0
 11 36  1  0  0  0  0
 12 14  1  0  0  0  0
 13 37  1  0  0  0  0
 13 38  1  0  0  0  0
 13 39  1  0  0  0  0
 14 15  2  0  0  0  0
 14 16  1  0  0  0  0
 15 17  1  0  0  0  0
 15 18  1  0  0  0  0
 16 19  2  0  0  0  0
 16 40  1  0  0  0  0
 17 20  2  0  0  0  0
 18 21  2  0  0  0  0
 18 41  1  0  0  0  0
 19 20  1  0  0  0  0
 19 42  1  0  0  0  0
 20 43  1  0  0  0  0
 21 45  1  0  0  0  0
M  END
> <PUBCHEM_COMPOUND_CID>
61510051

> <PUBCHEM_COMPOUND_CANONICALIZED>
1

> <PUBCHEM_CACTVS_COMPLEXITY>
349

> <PUBCHEM_CACTVS_HBOND_ACCEPTOR>
1

> <PUBCHEM_CACTVS_HBOND_DONOR>
2

> <PUBCHEM_CACTVS_ROTATABLE_BOND>
4

> <PUBCHEM_CACTVS_SUBSKEYS>
AAADceB7IAAAAAAAAAAAAAAAAAAAAWAAAAAwYAAAAAAAAFgB8AAAHgAQAAAADSjBngQ+wPLJkACoAzV3VACCgCA1AiAI2aE4ZNgIIPLAlZGEIQhglgDIyYcciYCOgAAAQAASAAAQAACAACQAAAAAAAAAAA==

> <PUBCHEM_IUPAC_OPENEYE_NAME>
N-(4-propylcyclohexyl)-1H-indole-4-carboxamide

> <PUBCHEM_IUPAC_CAS_NAME>
N-(4-propylcyclohexyl)-1H-indole-4-carboxamide

> <PUBCHEM_IUPAC_NAME>
N-(4-propylcyclohexyl)-1H-indole-4-carboxamide

> <PUBCHEM_IUPAC_SYSTEMATIC_NAME>
N-(4-propylcyclohexyl)-1H-indole-4-carboxamide

> <PUBCHEM_IUPAC_TRADITIONAL_NAME>
N-(4-propylcyclohexyl)-1H-indole-4-carboxamide

> <PUBCHEM_IUPAC_INCHI>
InChI=1S/C18H24N2O/c1-2-4-13-7-9-14(10-8-13)20-18(21)16-5-3-6-17-15(16)11-12-19-17/h3,5-6,11-14,19H,2,4,7-10H2,1H3,(H,20,21)

> <PUBCHEM_IUPAC_INCHIKEY>
BQPZGXAYYMBNAN-UHFFFAOYSA-N

> <PUBCHEM_XLOGP3>
4.2

> <PUBCHEM_EXACT_MASS>
284.188863

> <PUBCHEM_MOLECULAR_FORMULA>
C18H24N2O

> <PUBCHEM_MOLECULAR_WEIGHT>
284.39596

> <PUBCHEM_OPENEYE_CAN_SMILES>
CCCC1CCC(CC1)NC(=O)C2=C3C=CNC3=CC=C2

> <PUBCHEM_OPENEYE_ISO_SMILES>
CCCC1CCC(CC1)NC(=O)C2=C3C=CNC3=CC=C2

> <PUBCHEM_CACTVS_TPSA>
44.9

> <PUBCHEM_MONOISOTOPIC_WEIGHT>
284.188863

> <PUBCHEM_TOTAL_CHARGE>
0

> <PUBCHEM_HEAVY_ATOM_COUNT>
21

> <PUBCHEM_ATOM_DEF_STEREO_COUNT>
0

> <PUBCHEM_ATOM_UDEF_STEREO_COUNT>
0

> <PUBCHEM_BOND_DEF_STEREO_COUNT>
0

> <PUBCHEM_BOND_UDEF_STEREO_COUNT>
0

> <PUBCHEM_ISOTOPIC_ATOM_COUNT>
0

> <PUBCHEM_COMPONENT_COUNT>
1

> <PUBCHEM_CACTVS_TAUTO_COUNT>
5

> <PUBCHEM_COORDINATE_TYPE>
1
5
255

> <PUBCHEM_BONDANNOTATIONS>
14  15  8
14  16  8
15  17  8
15  18  8
16  19  8
17  20  8
18  21  8
19  20  8
3  17  8
3  21  8

$$$$
61522494
  -OEChem-10201218442D

 36 37  0     0  0  0  0  0  0999 V2000
    4.6783   -1.1274    0.0000 N   0  0  0  0  0  0  0  0  0  0  0  0
    8.5458    2.3428    0.0000 N   0  0  0  0  0  0  0  0  0  0  0  0
    4.9889   -0.1769    0.0000 C   0  0  0  0  0  0  0  0  0  0  0  0
    5.9674    0.0293    0.0000 C   0  0  0  0  0  0  0  0  0  0  0  0
    6.2781    0.9799    0.0000 C   0  0  0  0  0  0  0  0  0  0  0  0
    3.7320   -1.4321    0.0000 C   0  0  0  0  0  0  0  0  0  0  0  0
    5.2619   -1.9321    0.0000 C   0  0  0  0  0  0  0  0  0  0  0  0
    3.7320   -2.4321    0.0000 C   0  0  0  0  0  0  0  0  0  0  0  0
    7.2566    1.1861    0.0000 C   0  0  0  0  0  0  0  0  0  0  0  0
    4.6783   -2.7369    0.0000 C   0  0  0  0  0  0  0  0  0  0  0  0
    2.8660   -0.9321    0.0000 C   0  0  0  0  0  0  0  0  0  0  0  0
    7.5673    2.1366    0.0000 C   0  0  0  0  0  0  0  0  0  0  0  0
    6.2619   -1.9321    0.0000 C   0  0  0  0  0  0  0  0  0  0  0  0
    2.8660   -2.9321    0.0000 C   0  0  0  0  0  0  0  0  0  0  0  0
    2.0000   -1.4321    0.0000 C   0  0  0  0  0  0  0  0  0  0  0  0
    2.0000   -2.4321    0.0000 C   0  0  0  0  0  0  0  0  0  0  0  0
    4.9684    0.4428    0.0000 H   0  0  0  0  0  0  0  0  0  0  0  0
    4.3751   -0.0895    0.0000 H   0  0  0  0  0  0  0  0  0  0  0  0
    5.9880   -0.5903    0.0000 H   0  0  0  0  0  0  0  0  0  0  0  0
    6.5812   -0.0580    0.0000 H   0  0  0  0  0  0  0  0  0  0  0  0
    6.2575    1.5995    0.0000 H   0  0  0  0  0  0  0  0  0  0  0  0
    5.6643    1.0672    0.0000 H   0  0  0  0  0  0  0  0  0  0  0  0
    7.2772    0.5664    0.0000 H   0  0  0  0  0  0  0  0  0  0  0  0
    7.8704    1.0987    0.0000 H   0  0  0  0  0  0  0  0  0  0  0  0
    4.8709   -3.3262    0.0000 H   0  0  0  0  0  0  0  0  0  0  0  0
    2.8660   -0.3121    0.0000 H   0  0  0  0  0  0  0  0  0  0  0  0
    7.5467    2.7562    0.0000 H   0  0  0  0  0  0  0  0  0  0  0  0
    6.9534    2.2239    0.0000 H   0  0  0  0  0  0  0  0  0  0  0  0
    6.2619   -2.5521    0.0000 H   0  0  0  0  0  0  0  0  0  0  0  0
    6.8819   -1.9321    0.0000 H   0  0  0  0  0  0  0  0  0  0  0  0
    6.2619   -1.3121    0.0000 H   0  0  0  0  0  0  0  0  0  0  0  0
    2.8660   -3.5521    0.0000 H   0  0  0  0  0  0  0  0  0  0  0  0
    1.4631   -1.1221    0.0000 H   0  0  0  0  0  0  0  0  0  0  0  0
    1.4631   -2.7421    0.0000 H   0  0  0  0  0  0  0  0  0  0  0  0
    8.7384    2.9321    0.0000 H   0  0  0  0  0  0  0  0  0  0  0  0
    8.9598    1.8814    0.0000 H   0  0  0  0  0  0  0  0  0  0  0  0
  1  3  1  0  0  0  0
  1  6  1  0  0  0  0
  1  7  1  0  0  0  0
  2 12  1  0  0  0  0
  2 35  1  0  0  0  0
  2 36  1  0  0  0  0
  3  4  1  0  0  0  0
  3 17  1  0  0  0  0
  3 18  1  0  0  0  0
  4  5  1  0  0  0  0
  4 19  1  0  0  0  0
  4 20  1  0  0  0  0
  5  9  1  0  0  0  0
  5 21  1  0  0  0  0
  5 22  1  0  0  0  0
  6  8  1  0  0  0  0
  6 11  2  0  0  0  0
  7 10  2  0  0  0  0
  7 13  1  0  0  0  0
  8 10  1  0  0  0  0
  8 14  2  0  0  0  0
  9 12  1  0  0  0  0
  9 23  1  0  0  0  0
  9 24  1  0  0  0  0
 10 25  1  0  0  0  0
 11 15  1  0  0  0  0
 11 26  1  0  0  0  0
 12 27  1  0  0  0  0
 12 28  1  0  0  0  0
 13 29  1  0  0  0  0
 13 30  1  0  0  0  0
 13 31  1  0  0  0  0
 14 16  1  0  0  0  0
 14 32  1  0  0  0  0
 15 16  2  0  0  0  0
 15 33  1  0  0  0  0
 16 34  1  0  0  0  0
M  END
> <PUBCHEM_COMPOUND_CID>
61522494

> <PUBCHEM_COMPOUND_CANONICALIZED>
1

> <PUBCHEM_CACTVS_COMPLEXITY>
205

> <PUBCHEM_CACTVS_HBOND_ACCEPTOR>
1

> <PUBCHEM_CACTVS_HBOND_DONOR>
1

> <PUBCHEM_CACTVS_ROTATABLE_BOND>
5

> <PUBCHEM_CACTVS_SUBSKEYS>
AAADceBzAAAAAAAAAAAAAAAAAAAAAWAAAAAwAAAAAAAAAFgB8AAAHAAQAAAADAjBHgQywPNMEACgAyRiRACCgCAhAiAI2KA4ZJgIIOLAkZGEIAhgkADIyAcQgIAOAAAAAAACAAAAAAAAAAQAAAAAAAAAAA==

> <PUBCHEM_IUPAC_OPENEYE_NAME>
5-(2-methylindol-1-yl)pentan-1-amine

> <PUBCHEM_IUPAC_CAS_NAME>
5-(2-methyl-1-indolyl)-1-pentanamine

> <PUBCHEM_IUPAC_NAME>
5-(2-methylindol-1-yl)pentan-1-amine

> <PUBCHEM_IUPAC_SYSTEMATIC_NAME>
5-(2-methylindol-1-yl)pentan-1-amine

> <PUBCHEM_IUPAC_TRADITIONAL_NAME>
5-(2-methylindol-1-yl)pentylamine

> <PUBCHEM_IUPAC_INCHI>
InChI=1S/C14H20N2/c1-12-11-13-7-3-4-8-14(13)16(12)10-6-2-5-9-15/h3-4,7-8,11H,2,5-6,9-10,15H2,1H3

> <PUBCHEM_IUPAC_INCHIKEY>
LDUJERGRKUXPRL-UHFFFAOYSA-N

> <PUBCHEM_XLOGP3>
2.9

> <PUBCHEM_EXACT_MASS>
216.162649

> <PUBCHEM_MOLECULAR_FORMULA>
C14H20N2

> <PUBCHEM_MOLECULAR_WEIGHT>
216.322

> <PUBCHEM_OPENEYE_CAN_SMILES>
CC1=CC2=CC=CC=C2N1CCCCCN

> <PUBCHEM_OPENEYE_ISO_SMILES>
CC1=CC2=CC=CC=C2N1CCCCCN

> <PUBCHEM_CACTVS_TPSA>
31

> <PUBCHEM_MONOISOTOPIC_WEIGHT>
216.162649

> <PUBCHEM_TOTAL_CHARGE>
0

> <PUBCHEM_HEAVY_ATOM_COUNT>
16

> <PUBCHEM_ATOM_DEF_STEREO_COUNT>
0

> <PUBCHEM_ATOM_UDEF_STEREO_COUNT>
0

> <PUBCHEM_BOND_DEF_STEREO_COUNT>
0

> <PUBCHEM_BOND_UDEF_STEREO_COUNT>
0

> <PUBCHEM_ISOTOPIC_ATOM_COUNT>
0

> <PUBCHEM_COMPONENT_COUNT>
1

> <PUBCHEM_CACTVS_TAUTO_COUNT>
1

> <PUBCHEM_COORDINATE_TYPE>
1
5
255

> <PUBCHEM_BONDANNOTATIONS>
1  6  8
1  7  8
11  15  8
14  16  8
15  16  8
6  11  8
6  8  8
7  10  8
8  10  8
8  14  8

$$$$
61522495
  -OEChem-10201218442D

 33 34  0     0  0  0  0  0  0999 V2000
    4.6783   -1.1274    0.0000 N   0  0  0  0  0  0  0  0  0  0  0  0
    8.5458    2.3428    0.0000 N   0  0  0  0  0  0  0  0  0  0  0  0
    5.9674    0.0293    0.0000 C   0  0  0  0  0  0  0  0  0  0  0  0
    4.9889   -0.1769    0.0000 C   0  0  0  0  0  0  0  0  0  0  0  0
    6.2781    0.9799    0.0000 C   0  0  0  0  0  0  0  0  0  0  0  0
    3.7320   -1.4321    0.0000 C   0  0  0  0  0  0  0  0  0  0  0  0
    7.2566    1.1861    0.0000 C   0  0  0  0  0  0  0  0  0  0  0  0
    3.7320   -2.4321    0.0000 C   0  0  0  0  0  0  0  0  0  0  0  0
    5.2619   -1.9321    0.0000 C   0  0  0  0  0  0  0  0  0  0  0  0
    4.6783   -2.7369    0.0000 C   0  0  0  0  0  0  0  0  0  0  0  0
    7.5673    2.1366    0.0000 C   0  0  0  0  0  0  0  0  0  0  0  0
    2.8660   -0.9321    0.0000 C   0  0  0  0  0  0  0  0  0  0  0  0
    2.8660   -2.9321    0.0000 C   0  0  0  0  0  0  0  0  0  0  0  0
    2.0000   -1.4321    0.0000 C   0  0  0  0  0  0  0  0  0  0  0  0
    2.0000   -2.4321    0.0000 C   0  0  0  0  0  0  0  0  0  0  0  0
    5.9880   -0.5903    0.0000 H   0  0  0  0  0  0  0  0  0  0  0  0
    6.5812   -0.0580    0.0000 H   0  0  0  0  0  0  0  0  0  0  0  0
    4.9684    0.4428    0.0000 H   0  0  0  0  0  0  0  0  0  0  0  0
    4.3751   -0.0895    0.0000 H   0  0  0  0  0  0  0  0  0  0  0  0
    6.2575    1.5995    0.0000 H   0  0  0  0  0  0  0  0  0  0  0  0
    5.6643    1.0672    0.0000 H   0  0  0  0  0  0  0  0  0  0  0  0
    7.2772    0.5664    0.0000 H   0  0  0  0  0  0  0  0  0  0  0  0
    7.8704    1.0987    0.0000 H   0  0  0  0  0  0  0  0  0  0  0  0
    5.8819   -1.9321    0.0000 H   0  0  0  0  0  0  0  0  0  0  0  0
    4.8709   -3.3262    0.0000 H   0  0  0  0  0  0  0  0  0  0  0  0
    7.5467    2.7562    0.0000 H   0  0  0  0  0  0  0  0  0  0  0  0
    6.9534    2.2239    0.0000 H   0  0  0  0  0  0  0  0  0  0  0  0
    2.8660   -0.3121    0.0000 H   0  0  0  0  0  0  0  0  0  0  0  0
    2.8660   -3.5521    0.0000 H   0  0  0  0  0  0  0  0  0  0  0  0
    1.4631   -1.1221    0.0000 H   0  0  0  0  0  0  0  0  0  0  0  0
    1.4631   -2.7421    0.0000 H   0  0  0  0  0  0  0  0  0  0  0  0
    8.7384    2.9321    0.0000 H   0  0  0  0  0  0  0  0  0  0  0  0
    8.9598    1.8814    0.0000 H   0  0  0  0  0  0  0  0  0  0  0  0
  1  4  1  0  0  0  0
  1  6  1  0  0  0  0
  1  9  1  0  0  0  0
  2 11  1  0  0  0  0
  2 32  1  0  0  0  0
  2 33  1  0  0  0  0
  3  4  1  0  0  0  0
  3  5  1  0  0  0  0
  3 16  1  0  0  0  0
  3 17  1  0  0  0  0
  4 18  1  0  0  0  0
  4 19  1  0  0  0  0
  5  7  1  0  0  0  0
  5 20  1  0  0  0  0
  5 21  1  0  0  0  0
  6  8  1  0  0  0  0
  6 12  2  0  0  0  0
  7 11  1  0  0  0  0
  7 22  1  0  0  0  0
  7 23  1  0  0  0  0
  8 10  1  0  0  0  0
  8 13  2  0  0  0  0
  9 10  2  0  0  0  0
  9 24  1  0  0  0  0
 10 25  1  0  0  0  0
 11 26  1  0  0  0  0
 11 27  1  0  0  0  0
 12 14  1  0  0  0  0
 12 28  1  0  0  0  0
 13 15  1  0  0  0  0
 13 29  1  0  0  0  0
 14 15  2  0  0  0  0
 14 30  1  0  0  0  0
 15 31  1  0  0  0  0
M  END
> <PUBCHEM_COMPOUND_CID>
61522495

> <PUBCHEM_COMPOUND_CANONICALIZED>
1

> <PUBCHEM_CACTVS_COMPLEXITY>
181

> <PUBCHEM_CACTVS_HBOND_ACCEPTOR>
1

> <PUBCHEM_CACTVS_HBOND_DONOR>
1

> <PUBCHEM_CACTVS_ROTATABLE_BOND>
5

> <PUBCHEM_CACTVS_SUBSKEYS>
AAADceBzAAAAAAAAAAAAAAAAAAAAAWAAAAAwAAAAAAAAAFgB8AAAHAAQAAAADAjBHgQ8wPNMEACgAzRnRACCgCAxAiAI2KA4ZJgIIOLAkZGEIAhgkADIyAcQgIAOAAAAAAACAAAAAAAAAAQAAAAAAAAAAA==

> <PUBCHEM_IUPAC_OPENEYE_NAME>
5-indol-1-ylpentan-1-amine

> <PUBCHEM_IUPAC_CAS_NAME>
5-(1-indolyl)-1-pentanamine

> <PUBCHEM_IUPAC_NAME>
5-indol-1-ylpentan-1-amine

> <PUBCHEM_IUPAC_SYSTEMATIC_NAME>
5-indol-1-ylpentan-1-amine

> <PUBCHEM_IUPAC_TRADITIONAL_NAME>
5-indol-1-ylpentylamine

> <PUBCHEM_IUPAC_INCHI>
InChI=1S/C13H18N2/c14-9-4-1-5-10-15-11-8-12-6-2-3-7-13(12)15/h2-3,6-8,11H,1,4-5,9-10,14H2

> <PUBCHEM_IUPAC_INCHIKEY>
HKQOEBSPYSZKCS-UHFFFAOYSA-N

> <PUBCHEM_XLOGP3>
2.8

> <PUBCHEM_EXACT_MASS>
202.146999

> <PUBCHEM_MOLECULAR_FORMULA>
C13H18N2

> <PUBCHEM_MOLECULAR_WEIGHT>
202.29542

> <PUBCHEM_OPENEYE_CAN_SMILES>
C1=CC=C2C(=C1)C=CN2CCCCCN

> <PUBCHEM_OPENEYE_ISO_SMILES>
C1=CC=C2C(=C1)C=CN2CCCCCN

> <PUBCHEM_CACTVS_TPSA>
31

> <PUBCHEM_MONOISOTOPIC_WEIGHT>
202.146999

> <PUBCHEM_TOTAL_CHARGE>
0

> <PUBCHEM_HEAVY_ATOM_COUNT>
15

> <PUBCHEM_ATOM_DEF_STEREO_COUNT>
0

> <PUBCHEM_ATOM_UDEF_STEREO_COUNT>
0

> <PUBCHEM_BOND_DEF_STEREO_COUNT>
0

> <PUBCHEM_BOND_UDEF_STEREO_COUNT>
0

> <PUBCHEM_ISOTOPIC_ATOM_COUNT>
0

> <PUBCHEM_COMPONENT_COUNT>
1

> <PUBCHEM_CACTVS_TAUTO_COUNT>
1

> <PUBCHEM_COORDINATE_TYPE>
1
5
255

> <PUBCHEM_BONDANNOTATIONS>
1  6  8
1  9  8
12  14  8
13  15  8
14  15  8
6  12  8
6  8  8
8  10  8
8  13  8
9  10  8

$$$$
