61949700
  -OEChem-11301218212D

 22 23  0     1  0  0  0  0  0999 V2000
    3.7320   -1.5173    0.0000 Cl  0  0  0  0  0  0  0  0  0  0  0  0
    2.0000    0.4827    0.0000 N   0  0  0  0  0  0  0  0  0  0  0  0
    6.3301   -0.0173    0.0000 C   0  0  0  0  0  0  0  0  0  0  0  0
    6.3301    0.9827    0.0000 C   0  0  0  0  0  0  0  0  0  0  0  0
    4.5981   -0.0173    0.0000 C   0  0  0  0  0  0  0  0  0  0  0  0
    5.4641   -0.5173    0.0000 C   0  0  0  0  0  0  0  0  0  0  0  0
    5.4641    1.4827    0.0000 C   0  0  0  0  0  0  0  0  0  0  0  0
    4.5981    0.9827    0.0000 C   0  0  0  0  0  0  0  0  0  0  0  0
    7.2241   -0.5520    0.0000 C   0  0  0  0  0  0  0  0  0  0  0  0
    7.2241    1.5173    0.0000 C   0  0  0  0  0  0  0  0  0  0  0  0
    3.7320   -0.5173    0.0000 C   0  0  3  0  0  0  0  0  0  0  0  0
    8.1301   -0.0381    0.0000 C   0  0  0  0  0  0  0  0  0  0  0  0
    8.1301    1.0035    0.0000 C   0  0  0  0  0  0  0  0  0  0  0  0
    2.8660   -0.0173    0.0000 C   0  0  0  0  0  0  0  0  0  0  0  0
    5.4641   -1.1373    0.0000 H   0  0  0  0  0  0  0  0  0  0  0  0
    5.4641    2.1027    0.0000 H   0  0  0  0  0  0  0  0  0  0  0  0
    4.0611    1.2927    0.0000 H   0  0  0  0  0  0  0  0  0  0  0  0
    7.2169   -1.1720    0.0000 H   0  0  0  0  0  0  0  0  0  0  0  0
    7.2169    2.1373    0.0000 H   0  0  0  0  0  0  0  0  0  0  0  0
    4.2690   -0.8273    0.0000 H   0  0  0  0  0  0  0  0  0  0  0  0
    8.6659   -0.3502    0.0000 H   0  0  0  0  0  0  0  0  0  0  0  0
    8.6659    1.3156    0.0000 H   0  0  0  0  0  0  0  0  0  0  0  0
  1 11  1  0  0  0  0
  2 14  3  0  0  0  0
  3  4  1  0  0  0  0
  3  6  1  0  0  0  0
  3  9  2  0  0  0  0
  4  7  1  0  0  0  0
  4 10  2  0  0  0  0
  5  6  2  0  0  0  0
  5  8  1  0  0  0  0
  5 11  1  0  0  0  0
  6 15  1  0  0  0  0
  7  8  2  0  0  0  0
  7 16  1  0  0  0  0
  8 17  1  0  0  0  0
  9 12  1  0  0  0  0
  9 18  1  0  0  0  0
 10 13  1  0  0  0  0
 10 19  1  0  0  0  0
 11 14  1  0  0  0  0
 11 20  1  0  0  0  0
 12 13  2  0  0  0  0
 12 21  1  0  0  0  0
 13 22  1  0  0  0  0
M  END
> <PUBCHEM_COMPOUND_CID>
61949700

> <PUBCHEM_COMPOUND_CANONICALIZED>
1

> <PUBCHEM_CACTVS_COMPLEXITY>
242

> <PUBCHEM_CACTVS_HBOND_ACCEPTOR>
1

> <PUBCHEM_CACTVS_HBOND_DONOR>
0

> <PUBCHEM_CACTVS_ROTATABLE_BOND>
1

> <PUBCHEM_CACTVS_SUBSKEYS>
AAADccByAAAEAAAAAAAAAAAAAAAAAAAAAAAwYAAAAAAAAADBUAAAHAIAAAAADAOBGEAwAMAAAACQBiBCAAACAAAgAAAIiAAAAogIoCKBERCAIAAggAAIiA8AgMAOwAACAAAQAACAAAQAACAAAAAAAAAAAA==

> <PUBCHEM_IUPAC_OPENEYE_NAME>
2-chloro-2-(2-naphthyl)acetonitrile

> <PUBCHEM_IUPAC_CAS_NAME>
2-chloro-2-(2-naphthalenyl)acetonitrile

> <PUBCHEM_IUPAC_NAME>
2-chloro-2-naphthalen-2-ylacetonitrile

> <PUBCHEM_IUPAC_SYSTEMATIC_NAME>
2-chloranyl-2-naphthalen-2-yl-ethanenitrile

> <PUBCHEM_IUPAC_TRADITIONAL_NAME>
2-chloro-2-(2-naphthyl)acetonitrile

> <PUBCHEM_IUPAC_INCHI>
InChI=1S/C12H8ClN/c13-12(8-14)11-6-5-9-3-1-2-4-10(9)7-11/h1-7,12H

> <PUBCHEM_IUPAC_INCHIKEY>
BMSRLVOBWHPUIW-UHFFFAOYSA-N

> <PUBCHEM_XLOGP3>
3.9

> <PUBCHEM_EXACT_MASS>
201.034527

> <PUBCHEM_MOLECULAR_FORMULA>
C12H8ClN

> <PUBCHEM_MOLECULAR_WEIGHT>
201.65162

> <PUBCHEM_OPENEYE_CAN_SMILES>
C1=CC=C2C=C(C=CC2=C1)C(C#N)Cl

> <PUBCHEM_OPENEYE_ISO_SMILES>
C1=CC=C2C=C(C=CC2=C1)C(C#N)Cl

> <PUBCHEM_CACTVS_TPSA>
23.8

> <PUBCHEM_MONOISOTOPIC_WEIGHT>
201.034527

> <PUBCHEM_TOTAL_CHARGE>
0

> <PUBCHEM_HEAVY_ATOM_COUNT>
14

> <PUBCHEM_ATOM_DEF_STEREO_COUNT>
0

> <PUBCHEM_ATOM_UDEF_STEREO_COUNT>
1

> <PUBCHEM_BOND_DEF_STEREO_COUNT>
0

> <PUBCHEM_BOND_UDEF_STEREO_COUNT>
0

> <PUBCHEM_ISOTOPIC_ATOM_COUNT>
0

> <PUBCHEM_COMPONENT_COUNT>
1

> <PUBCHEM_CACTVS_TAUTO_COUNT>
1

> <PUBCHEM_COORDINATE_TYPE>
1
5
255

> <PUBCHEM_BONDANNOTATIONS>
11  1  3
10  13  8
12  13  8
3  4  8
3  6  8
3  9  8
4  10  8
4  7  8
5  6  8
5  8  8
7  8  8
9  12  8

$$$$
