34819690
  -OEChem-04041303242D

 30 31  0     0  0  0  0  0  0999 V2000
    2.0000   -1.1830    0.0000 Cl  0  0  0  0  0  0  0  0  0  0  0  0
    3.7320   -4.1830    0.0000 Cl  0  0  0  0  0  0  0  0  0  0  0  0
    3.7320    1.8170    0.0000 O   0  0  0  0  0  0  0  0  0  0  0  0
    5.4641    1.8170    0.0000 N   0  0  0  0  0  0  0  0  0  0  0  0
    6.3301    3.3170    0.0000 C   0  0  0  0  0  0  0  0  0  0  0  0
    7.3301    3.3170    0.0000 C   0  0  0  0  0  0  0  0  0  0  0  0
    6.8301    4.1830    0.0000 C   0  0  0  0  0  0  0  0  0  0  0  0
    5.4641    2.8170    0.0000 C   0  0  0  0  0  0  0  0  0  0  0  0
    4.5981    1.3170    0.0000 C   0  0  0  0  0  0  0  0  0  0  0  0
    4.5981    0.3170    0.0000 C   0  0  0  0  0  0  0  0  0  0  0  0
    3.7320   -0.1830    0.0000 C   0  0  0  0  0  0  0  0  0  0  0  0
    3.7320   -1.1830    0.0000 C   0  0  0  0  0  0  0  0  0  0  0  0
    2.8660   -1.6830    0.0000 C   0  0  0  0  0  0  0  0  0  0  0  0
    4.5981   -1.6830    0.0000 C   0  0  0  0  0  0  0  0  0  0  0  0
    2.8660   -2.6830    0.0000 C   0  0  0  0  0  0  0  0  0  0  0  0
    4.5981   -2.6830    0.0000 C   0  0  0  0  0  0  0  0  0  0  0  0
    3.7320   -3.1830    0.0000 C   0  0  0  0  0  0  0  0  0  0  0  0
    5.8917    3.7554    0.0000 H   0  0  0  0  0  0  0  0  0  0  0  0
    7.4378    2.7064    0.0000 H   0  0  0  0  0  0  0  0  0  0  0  0
    7.9127    3.5290    0.0000 H   0  0  0  0  0  0  0  0  0  0  0  0
    7.3051    4.5815    0.0000 H   0  0  0  0  0  0  0  0  0  0  0  0
    6.3552    4.5815    0.0000 H   0  0  0  0  0  0  0  0  0  0  0  0
    5.2520    3.3996    0.0000 H   0  0  0  0  0  0  0  0  0  0  0  0
    4.8535    2.7093    0.0000 H   0  0  0  0  0  0  0  0  0  0  0  0
    6.0010    1.5070    0.0000 H   0  0  0  0  0  0  0  0  0  0  0  0
    5.1350    0.0070    0.0000 H   0  0  0  0  0  0  0  0  0  0  0  0
    3.1951    0.1270    0.0000 H   0  0  0  0  0  0  0  0  0  0  0  0
    5.1350   -1.3730    0.0000 H   0  0  0  0  0  0  0  0  0  0  0  0
    2.3291   -2.9930    0.0000 H   0  0  0  0  0  0  0  0  0  0  0  0
    5.1350   -2.9930    0.0000 H   0  0  0  0  0  0  0  0  0  0  0  0
  1 13  1  0  0  0  0
  2 17  1  0  0  0  0
  3  9  2  0  0  0  0
  4  8  1  0  0  0  0
  4  9  1  0  0  0  0
  4 25  1  0  0  0  0
  5  6  1  0  0  0  0
  5  7  1  0  0  0  0
  5  8  1  0  0  0  0
  5 18  1  0  0  0  0
  6  7  1  0  0  0  0
  6 19  1  0  0  0  0
  6 20  1  0  0  0  0
  7 21  1  0  0  0  0
  7 22  1  0  0  0  0
  8 23  1  0  0  0  0
  8 24  1  0  0  0  0
  9 10  1  0  0  0  0
 10 11  2  0  0  0  0
 10 26  1  0  0  0  0
 11 12  1  0  0  0  0
 11 27  1  0  0  0  0
 12 13  2  0  0  0  0
 12 14  1  0  0  0  0
 13 15  1  0  0  0  0
 14 16  2  0  0  0  0
 14 28  1  0  0  0  0
 15 17  2  0  0  0  0
 15 29  1  0  0  0  0
 16 17  1  0  0  0  0
 16 30  1  0  0  0  0
M  END
> <PUBCHEM_COMPOUND_CID>
34819690

> <PUBCHEM_COMPOUND_CANONICALIZED>
1

> <PUBCHEM_CACTVS_COMPLEXITY>
302

> <PUBCHEM_CACTVS_HBOND_ACCEPTOR>
1

> <PUBCHEM_CACTVS_HBOND_DONOR>
1

> <PUBCHEM_CACTVS_ROTATABLE_BOND>
4

> <PUBCHEM_CACTVS_SUBSKEYS>
AAADccByIAAGAAAAAAAAAAAAGAAAAAAAAAAwAAAAAAAAAAABAAAAHgIQAAAADQLBmCQwAILAAACIAiFSEACCAAAgBQAIiIAIAsgIICKBkxCEIAAglgCIiYcAgAAOBAAAAACBAAAIAAAAAQIAAAAAAAAAAA==

> <PUBCHEM_IUPAC_OPENEYE_NAME>
(E)-N-(cyclopropylmethyl)-3-(2,4-dichlorophenyl)prop-2-enamide

> <PUBCHEM_IUPAC_CAS_NAME>
(E)-N-(cyclopropylmethyl)-3-(2,4-dichlorophenyl)-2-propenamide

> <PUBCHEM_IUPAC_NAME>
(E)-N-(cyclopropylmethyl)-3-(2,4-dichlorophenyl)prop-2-enamide

> <PUBCHEM_IUPAC_SYSTEMATIC_NAME>
(E)-N-(cyclopropylmethyl)-3-(2,4-dichlorophenyl)prop-2-enamide

> <PUBCHEM_IUPAC_TRADITIONAL_NAME>
(E)-N-(cyclopropylmethyl)-3-(2,4-dichlorophenyl)acrylamide

> <PUBCHEM_IUPAC_INCHI>
InChI=1S/C13H13Cl2NO/c14-11-5-3-10(12(15)7-11)4-6-13(17)16-8-9-1-2-9/h3-7,9H,1-2,8H2,(H,16,17)/b6-4+

> <PUBCHEM_IUPAC_INCHIKEY>
IYMBYZBPLNVOTN-GQCTYLIASA-N

> <PUBCHEM_XLOGP3>
3.5

> <PUBCHEM_EXACT_MASS>
269.037419

> <PUBCHEM_MOLECULAR_FORMULA>
C13H13Cl2NO

> <PUBCHEM_MOLECULAR_WEIGHT>
270.15442

> <PUBCHEM_OPENEYE_CAN_SMILES>
C1CC1CNC(=O)C=CC2=C(C=C(C=C2)Cl)Cl

> <PUBCHEM_OPENEYE_ISO_SMILES>
C1CC1CNC(=O)/C=C/C2=C(C=C(C=C2)Cl)Cl

> <PUBCHEM_CACTVS_TPSA>
29.1

> <PUBCHEM_MONOISOTOPIC_WEIGHT>
269.037419

> <PUBCHEM_TOTAL_CHARGE>
0

> <PUBCHEM_HEAVY_ATOM_COUNT>
17

> <PUBCHEM_ATOM_DEF_STEREO_COUNT>
0

> <PUBCHEM_ATOM_UDEF_STEREO_COUNT>
0

> <PUBCHEM_BOND_DEF_STEREO_COUNT>
1

> <PUBCHEM_BOND_UDEF_STEREO_COUNT>
0

> <PUBCHEM_ISOTOPIC_ATOM_COUNT>
0

> <PUBCHEM_COMPONENT_COUNT>
1

> <PUBCHEM_CACTVS_TAUTO_COUNT>
2

> <PUBCHEM_COORDINATE_TYPE>
1
5
255

> <PUBCHEM_BONDANNOTATIONS>
12  13  8
12  14  8
13  15  8
14  16  8
15  17  8
16  17  8

$$$$
