24451404
  -OEChem-11301217352D

 59 61  0     0  0  0  0  0  0999 V2000
   11.5263    6.3170    0.0000 F   0  0  0  0  0  0  0  0  0  0  0  0
   10.1603    6.6830    0.0000 F   0  0  0  0  0  0  0  0  0  0  0  0
   11.1603    4.9510    0.0000 F   0  0  0  0  0  0  0  0  0  0  0  0
    6.3301   -3.6830    0.0000 O   0  0  0  0  0  0  0  0  0  0  0  0
    8.0622    1.3170    0.0000 O   0  0  0  0  0  0  0  0  0  0  0  0
    9.7942    5.3170    0.0000 O   0  0  0  0  0  0  0  0  0  0  0  0
    2.0000   -5.1830    0.0000 O   0  5  0  0  0  0  0  0  0  0  0  0
    2.8660   -3.6830    0.0000 O   0  0  0  0  0  0  0  0  0  0  0  0
    6.3301   -1.6830    0.0000 N   0  0  0  0  0  0  0  0  0  0  0  0
    8.0622   -0.6830    0.0000 N   0  0  0  0  0  0  0  0  0  0  0  0
    4.5981   -3.6830    0.0000 N   0  0  0  0  0  0  0  0  0  0  0  0
    9.7942    1.3170    0.0000 N   0  0  0  0  0  0  0  0  0  0  0  0
    2.8660   -4.6830    0.0000 N   0  3  0  0  0  0  0  0  0  0  0  0
    7.1962   -2.1830    0.0000 C   0  0  0  0  0  0  0  0  0  0  0  0
    6.3301   -0.6830    0.0000 C   0  0  0  0  0  0  0  0  0  0  0  0
    8.0622   -1.6830    0.0000 C   0  0  0  0  0  0  0  0  0  0  0  0
    7.1962   -0.1830    0.0000 C   0  0  0  0  0  0  0  0  0  0  0  0
    5.4641   -2.1830    0.0000 C   0  0  0  0  0  0  0  0  0  0  0  0
    8.9282   -0.1830    0.0000 C   0  0  0  0  0  0  0  0  0  0  0  0
    5.4641   -3.1830    0.0000 C   0  0  0  0  0  0  0  0  0  0  0  0
    8.9282    0.8170    0.0000 C   0  0  0  0  0  0  0  0  0  0  0  0
    4.5981   -4.6830    0.0000 C   0  0  0  0  0  0  0  0  0  0  0  0
    9.7942    2.3170    0.0000 C   0  0  0  0  0  0  0  0  0  0  0  0
    5.4641   -5.1830    0.0000 C   0  0  0  0  0  0  0  0  0  0  0  0
    3.7320   -5.1830    0.0000 C   0  0  0  0  0  0  0  0  0  0  0  0
    5.4641   -6.1830    0.0000 C   0  0  0  0  0  0  0  0  0  0  0  0
   10.6603    2.8170    0.0000 C   0  0  0  0  0  0  0  0  0  0  0  0
    8.9282    2.8170    0.0000 C   0  0  0  0  0  0  0  0  0  0  0  0
    3.7320   -6.1830    0.0000 C   0  0  0  0  0  0  0  0  0  0  0  0
    6.3301   -4.6830    0.0000 C   0  0  0  0  0  0  0  0  0  0  0  0
    4.5981   -6.6830    0.0000 C   0  0  0  0  0  0  0  0  0  0  0  0
   10.6603    3.8170    0.0000 C   0  0  0  0  0  0  0  0  0  0  0  0
    8.9282    3.8170    0.0000 C   0  0  0  0  0  0  0  0  0  0  0  0
    9.7942    4.3170    0.0000 C   0  0  0  0  0  0  0  0  0  0  0  0
   10.6603    5.8170    0.0000 C   0  0  0  0  0  0  0  0  0  0  0  0
    6.1181   -0.1004    0.0000 H   0  0  0  0  0  0  0  0  0  0  0  0
    5.7196   -0.7907    0.0000 H   0  0  0  0  0  0  0  0  0  0  0  0
    6.7976   -2.6580    0.0000 H   0  0  0  0  0  0  0  0  0  0  0  0
    7.5947   -2.6580    0.0000 H   0  0  0  0  0  0  0  0  0  0  0  0
    7.5947    0.2919    0.0000 H   0  0  0  0  0  0  0  0  0  0  0  0
    6.7976    0.2919    0.0000 H   0  0  0  0  0  0  0  0  0  0  0  0
    8.2742   -2.2656    0.0000 H   0  0  0  0  0  0  0  0  0  0  0  0
    8.6728   -1.5754    0.0000 H   0  0  0  0  0  0  0  0  0  0  0  0
    5.2520   -1.6004    0.0000 H   0  0  0  0  0  0  0  0  0  0  0  0
    4.8535   -2.2907    0.0000 H   0  0  0  0  0  0  0  0  0  0  0  0
    9.1403   -0.7656    0.0000 H   0  0  0  0  0  0  0  0  0  0  0  0
    9.5388   -0.0754    0.0000 H   0  0  0  0  0  0  0  0  0  0  0  0
    4.0611   -3.3730    0.0000 H   0  0  0  0  0  0  0  0  0  0  0  0
   10.3312    1.0070    0.0000 H   0  0  0  0  0  0  0  0  0  0  0  0
    6.0010   -6.4930    0.0000 H   0  0  0  0  0  0  0  0  0  0  0  0
    3.1951   -6.4930    0.0000 H   0  0  0  0  0  0  0  0  0  0  0  0
   11.1972    2.5070    0.0000 H   0  0  0  0  0  0  0  0  0  0  0  0
    8.3913    2.5070    0.0000 H   0  0  0  0  0  0  0  0  0  0  0  0
    6.6401   -5.2200    0.0000 H   0  0  0  0  0  0  0  0  0  0  0  0
    6.8671   -4.3730    0.0000 H   0  0  0  0  0  0  0  0  0  0  0  0
    6.0201   -4.1461    0.0000 H   0  0  0  0  0  0  0  0  0  0  0  0
    4.5981   -7.3030    0.0000 H   0  0  0  0  0  0  0  0  0  0  0  0
   11.1972    4.1270    0.0000 H   0  0  0  0  0  0  0  0  0  0  0  0
    8.3913    4.1270    0.0000 H   0  0  0  0  0  0  0  0  0  0  0  0
  1 35  1  0  0  0  0
  2 35  1  0  0  0  0
  3 35  1  0  0  0  0
  4 20  2  0  0  0  0
  5 21  2  0  0  0  0
  6 34  1  0  0  0  0
  6 35  1  0  0  0  0
  7 13  1  0  0  0  0
  8 13  2  0  0  0  0
  9 14  1  0  0  0  0
  9 15  1  0  0  0  0
  9 18  1  0  0  0  0
 10 16  1  0  0  0  0
 10 17  1  0  0  0  0
 10 19  1  0  0  0  0
 11 20  1  0  0  0  0
 11 22  1  0  0  0  0
 11 48  1  0  0  0  0
 12 21  1  0  0  0  0
 12 23  1  0  0  0  0
 12 49  1  0  0  0  0
 13 25  1  0  0  0  0
 14 16  1  0  0  0  0
 14 38  1  0  0  0  0
 14 39  1  0  0  0  0
 15 17  1  0  0  0  0
 15 36  1  0  0  0  0
 15 37  1  0  0  0  0
 16 42  1  0  0  0  0
 16 43  1  0  0  0  0
 17 40  1  0  0  0  0
 17 41  1  0  0  0  0
 18 20  1  0  0  0  0
 18 44  1  0  0  0  0
 18 45  1  0  0  0  0
 19 21  1  0  0  0  0
 19 46  1  0  0  0  0
 19 47  1  0  0  0  0
 22 24  2  0  0  0  0
 22 25  1  0  0  0  0
 23 27  2  0  0  0  0
 23 28  1  0  0  0  0
 24 26  1  0  0  0  0
 24 30  1  0  0  0  0
 25 29  2  0  0  0  0
 26 31  2  0  0  0  0
 26 50  1  0  0  0  0
 27 32  1  0  0  0  0
 27 52  1  0  0  0  0
 28 33  2  0  0  0  0
 28 53  1  0  0  0  0
 29 31  1  0  0  0  0
 29 51  1  0  0  0  0
 30 54  1  0  0  0  0
 30 55  1  0  0  0  0
 30 56  1  0  0  0  0
 31 57  1  0  0  0  0
 32 34  2  0  0  0  0
 32 58  1  0  0  0  0
 33 34  1  0  0  0  0
 33 59  1  0  0  0  0
M  CHG  2   7  -1  13   1
M  END
> <PUBCHEM_COMPOUND_CID>
24451404

> <PUBCHEM_COMPOUND_CANONICALIZED>
1

> <PUBCHEM_CACTVS_COMPLEXITY>
734

> <PUBCHEM_CACTVS_HBOND_ACCEPTOR>
10

> <PUBCHEM_CACTVS_HBOND_DONOR>
2

> <PUBCHEM_CACTVS_ROTATABLE_BOND>
7

> <PUBCHEM_CACTVS_SUBSKEYS>
AAADceB7uYAAAAAAAAAAAAAAAAAAAAAAAAA8YIAAAAAAAAABQAAAHwAUAAAADAzBmBQyxoPQRACJAiVSUwCCCAAhIgAoiACOfIoMZiLEsbuUMChk1JHI6AewwAAOAEAAQAACACAAgACAAAQAQAAAAAAAAA==

> <PUBCHEM_IUPAC_OPENEYE_NAME>
2-[4-[2-(2-methyl-6-nitro-anilino)-2-oxo-ethyl]piperazin-1-yl]-N-[4-(trifluoromethoxy)phenyl]acetamide

> <PUBCHEM_IUPAC_CAS_NAME>
2-[4-[2-(2-methyl-6-nitroanilino)-2-oxoethyl]-1-piperazinyl]-N-[4-(trifluoromethoxy)phenyl]acetamide

> <PUBCHEM_IUPAC_NAME>
2-[4-[2-(2-methyl-6-nitroanilino)-2-oxoethyl]piperazin-1-yl]-N-[4-(trifluoromethoxy)phenyl]acetamide

> <PUBCHEM_IUPAC_SYSTEMATIC_NAME>
2-[4-[2-[(2-methyl-6-nitro-phenyl)amino]-2-oxidanylidene-ethyl]piperazin-1-yl]-N-[4-(trifluoromethyloxy)phenyl]ethanamide

> <PUBCHEM_IUPAC_TRADITIONAL_NAME>
2-[4-[2-keto-2-(2-methyl-6-nitro-anilino)ethyl]piperazino]-N-[4-(trifluoromethoxy)phenyl]acetamide

> <PUBCHEM_IUPAC_INCHI>
InChI=1S/C22H24F3N5O5/c1-15-3-2-4-18(30(33)34)21(15)27-20(32)14-29-11-9-28(10-12-29)13-19(31)26-16-5-7-17(8-6-16)35-22(23,24)25/h2-8H,9-14H2,1H3,(H,26,31)(H,27,32)

> <PUBCHEM_IUPAC_INCHIKEY>
ZCDYCSQVDMGUAC-UHFFFAOYSA-N

> <PUBCHEM_XLOGP3>
2.6

> <PUBCHEM_EXACT_MASS>
495.172954

> <PUBCHEM_MOLECULAR_FORMULA>
C22H24F3N5O5

> <PUBCHEM_MOLECULAR_WEIGHT>
495.45167

> <PUBCHEM_OPENEYE_CAN_SMILES>
CC1=C(C(=CC=C1)[N+](=O)[O-])NC(=O)CN2CCN(CC2)CC(=O)NC3=CC=C(C=C3)OC(F)(F)F

> <PUBCHEM_OPENEYE_ISO_SMILES>
CC1=C(C(=CC=C1)[N+](=O)[O-])NC(=O)CN2CCN(CC2)CC(=O)NC3=CC=C(C=C3)OC(F)(F)F

> <PUBCHEM_CACTVS_TPSA>
120

> <PUBCHEM_MONOISOTOPIC_WEIGHT>
495.172954

> <PUBCHEM_TOTAL_CHARGE>
0

> <PUBCHEM_HEAVY_ATOM_COUNT>
35

> <PUBCHEM_ATOM_DEF_STEREO_COUNT>
0

> <PUBCHEM_ATOM_UDEF_STEREO_COUNT>
0

> <PUBCHEM_BOND_DEF_STEREO_COUNT>
0

> <PUBCHEM_BOND_UDEF_STEREO_COUNT>
0

> <PUBCHEM_ISOTOPIC_ATOM_COUNT>
0

> <PUBCHEM_COMPONENT_COUNT>
1

> <PUBCHEM_CACTVS_TAUTO_COUNT>
9

> <PUBCHEM_COORDINATE_TYPE>
1
5
255

> <PUBCHEM_BONDANNOTATIONS>
22  24  8
22  25  8
23  27  8
23  28  8
24  26  8
25  29  8
26  31  8
27  32  8
28  33  8
29  31  8
32  34  8
33  34  8

$$$$
