52822423
  -OEChem-11301218042D

 41 43  0     0  0  0  0  0  0999 V2000
   11.4813   -2.6513    0.0000 S   0  0  0  0  0  0  0  0  0  0  0  0
   12.1026   -4.5523    0.0000 F   0  0  0  0  0  0  0  0  0  0  0  0
   12.7425   -3.2911    0.0000 F   0  0  0  0  0  0  0  0  0  0  0  0
   10.8414   -3.9125    0.0000 F   0  0  0  0  0  0  0  0  0  0  0  0
    7.2566   -0.8759    0.0000 O   0  0  0  0  0  0  0  0  0  0  0  0
    6.8994   -2.5707    0.0000 O   0  0  0  0  0  0  0  0  0  0  0  0
    4.6783    1.4376    0.0000 N   0  0  0  0  0  0  0  0  0  0  0  0
    4.6783    3.0471    0.0000 N   0  0  0  0  0  0  0  0  0  0  0  0
    2.8660    1.2423    0.0000 N   0  0  0  0  0  0  0  0  0  0  0  0
    2.0000    2.7423    0.0000 N   0  0  0  0  0  0  0  0  0  0  0  0
    2.8660    4.2423    0.0000 N   0  0  0  0  0  0  0  0  0  0  0  0
    4.9889    0.4871    0.0000 C   0  0  0  0  0  0  0  0  0  0  0  0
    5.9674    0.2809    0.0000 C   0  0  0  0  0  0  0  0  0  0  0  0
    3.7320    1.7423    0.0000 C   0  0  0  0  0  0  0  0  0  0  0  0
    6.2781   -0.6697    0.0000 C   0  0  0  0  0  0  0  0  0  0  0  0
    3.7320    2.7423    0.0000 C   0  0  0  0  0  0  0  0  0  0  0  0
    5.2619    2.2423    0.0000 C   0  0  0  0  0  0  0  0  0  0  0  0
    2.8660    3.2423    0.0000 C   0  0  0  0  0  0  0  0  0  0  0  0
    7.5673   -1.8264    0.0000 C   0  0  0  0  0  0  0  0  0  0  0  0
    8.5458   -2.0326    0.0000 C   0  0  0  0  0  0  0  0  0  0  0  0
    2.0000    1.7423    0.0000 C   0  0  0  0  0  0  0  0  0  0  0  0
    8.8564   -2.9832    0.0000 C   0  0  0  0  0  0  0  0  0  0  0  0
    9.2136   -1.2883    0.0000 C   0  0  0  0  0  0  0  0  0  0  0  0
   10.5028   -2.4451    0.0000 C   0  0  0  0  0  0  0  0  0  0  0  0
    9.8349   -3.1894    0.0000 C   0  0  0  0  0  0  0  0  0  0  0  0
   10.1921   -1.4945    0.0000 C   0  0  0  0  0  0  0  0  0  0  0  0
   11.7920   -3.6018    0.0000 C   0  0  0  0  0  0  0  0  0  0  0  0
    4.3751    0.3997    0.0000 H   0  0  0  0  0  0  0  0  0  0  0  0
    4.9684   -0.1326    0.0000 H   0  0  0  0  0  0  0  0  0  0  0  0
    6.5812    0.3682    0.0000 H   0  0  0  0  0  0  0  0  0  0  0  0
    5.9880    0.9005    0.0000 H   0  0  0  0  0  0  0  0  0  0  0  0
    5.6643   -0.7570    0.0000 H   0  0  0  0  0  0  0  0  0  0  0  0
    6.2575   -1.2893    0.0000 H   0  0  0  0  0  0  0  0  0  0  0  0
    5.8819    2.2423    0.0000 H   0  0  0  0  0  0  0  0  0  0  0  0
    1.4631    1.4323    0.0000 H   0  0  0  0  0  0  0  0  0  0  0  0
    8.4424   -3.4446    0.0000 H   0  0  0  0  0  0  0  0  0  0  0  0
    9.0210   -0.6990    0.0000 H   0  0  0  0  0  0  0  0  0  0  0  0
    2.3291    4.5523    0.0000 H   0  0  0  0  0  0  0  0  0  0  0  0
    3.4030    4.5523    0.0000 H   0  0  0  0  0  0  0  0  0  0  0  0
   10.0276   -3.7787    0.0000 H   0  0  0  0  0  0  0  0  0  0  0  0
   10.6062   -1.0331    0.0000 H   0  0  0  0  0  0  0  0  0  0  0  0
  1 24  1  0  0  0  0
  1 27  1  0  0  0  0
  2 27  1  0  0  0  0
  3 27  1  0  0  0  0
  4 27  1  0  0  0  0
  5 15  1  0  0  0  0
  5 19  1  0  0  0  0
  6 19  2  0  0  0  0
  7 12  1  0  0  0  0
  7 14  1  0  0  0  0
  7 17  1  0  0  0  0
  8 16  1  0  0  0  0
  8 17  2  0  0  0  0
  9 14  2  0  0  0  0
  9 21  1  0  0  0  0
 10 18  1  0  0  0  0
 10 21  2  0  0  0  0
 11 18  1  0  0  0  0
 11 38  1  0  0  0  0
 11 39  1  0  0  0  0
 12 13  1  0  0  0  0
 12 28  1  0  0  0  0
 12 29  1  0  0  0  0
 13 15  1  0  0  0  0
 13 30  1  0  0  0  0
 13 31  1  0  0  0  0
 14 16  1  0  0  0  0
 15 32  1  0  0  0  0
 15 33  1  0  0  0  0
 16 18  2  0  0  0  0
 17 34  1  0  0  0  0
 19 20  1  0  0  0  0
 20 22  2  0  0  0  0
 20 23  1  0  0  0  0
 21 35  1  0  0  0  0
 22 25  1  0  0  0  0
 22 36  1  0  0  0  0
 23 26  2  0  0  0  0
 23 37  1  0  0  0  0
 24 25  2  0  0  0  0
 24 26  1  0  0  0  0
 25 40  1  0  0  0  0
 26 41  1  0  0  0  0
M  END
> <PUBCHEM_COMPOUND_CID>
52822423

> <PUBCHEM_COMPOUND_CANONICALIZED>
1

> <PUBCHEM_CACTVS_COMPLEXITY>
505

> <PUBCHEM_CACTVS_HBOND_ACCEPTOR>
10

> <PUBCHEM_CACTVS_HBOND_DONOR>
1

> <PUBCHEM_CACTVS_ROTATABLE_BOND>
7

> <PUBCHEM_CACTVS_SUBSKEYS>
AAADccB7sYBAAAAAAAAAAAAAAAAAAWAAAAA8QAAAAAAAAFgB/AAAHwQQAAAADAjh3xY1+b9MFAioAybzbACCgC01GLAJ2DkoXNiIbjLgfViWNQguwAPIqaeIyCCOEAAAAAAAAAAgAAAAAAAAAAAAAAAAAA==

> <PUBCHEM_IUPAC_OPENEYE_NAME>
3-(6-aminopurin-9-yl)propyl 4-(trifluoromethylsulfanyl)benzoate

> <PUBCHEM_IUPAC_CAS_NAME>
4-(trifluoromethylthio)benzoic acid 3-(6-aminopurin-9-yl)propyl ester

> <PUBCHEM_IUPAC_NAME>
3-(6-aminopurin-9-yl)propyl 4-(trifluoromethylsulfanyl)benzoate

> <PUBCHEM_IUPAC_SYSTEMATIC_NAME>
3-(6-aminopurin-9-yl)propyl 4-(trifluoromethylsulfanyl)benzoate

> <PUBCHEM_IUPAC_TRADITIONAL_NAME>
4-(trifluoromethylthio)benzoic acid 3-adenin-9-ylpropyl ester

> <PUBCHEM_IUPAC_INCHI>
InChI=1S/C16H14F3N5O2S/c17-16(18,19)27-11-4-2-10(3-5-11)15(25)26-7-1-6-24-9-23-12-13(20)21-8-22-14(12)24/h2-5,8-9H,1,6-7H2,(H2,20,21,22)

> <PUBCHEM_IUPAC_INCHIKEY>
GKOWVEWIZBNLDN-UHFFFAOYSA-N

> <PUBCHEM_XLOGP3>
3.5

> <PUBCHEM_EXACT_MASS>
397.08203

> <PUBCHEM_MOLECULAR_FORMULA>
C16H14F3N5O2S

> <PUBCHEM_MOLECULAR_WEIGHT>
397.37487

> <PUBCHEM_OPENEYE_CAN_SMILES>
C1=CC(=CC=C1C(=O)OCCCN2C=NC3=C2N=CN=C3N)SC(F)(F)F

> <PUBCHEM_OPENEYE_ISO_SMILES>
C1=CC(=CC=C1C(=O)OCCCN2C=NC3=C2N=CN=C3N)SC(F)(F)F

> <PUBCHEM_CACTVS_TPSA>
121

> <PUBCHEM_MONOISOTOPIC_WEIGHT>
397.08203

> <PUBCHEM_TOTAL_CHARGE>
0

> <PUBCHEM_HEAVY_ATOM_COUNT>
27

> <PUBCHEM_ATOM_DEF_STEREO_COUNT>
0

> <PUBCHEM_ATOM_UDEF_STEREO_COUNT>
0

> <PUBCHEM_BOND_DEF_STEREO_COUNT>
0

> <PUBCHEM_BOND_UDEF_STEREO_COUNT>
0

> <PUBCHEM_ISOTOPIC_ATOM_COUNT>
0

> <PUBCHEM_COMPONENT_COUNT>
1

> <PUBCHEM_CACTVS_TAUTO_COUNT>
3

> <PUBCHEM_COORDINATE_TYPE>
1
5
255

> <PUBCHEM_BONDANNOTATIONS>
10  18  8
10  21  8
14  16  8
16  18  8
20  22  8
20  23  8
22  25  8
23  26  8
24  25  8
24  26  8
7  14  8
7  17  8
8  16  8
8  17  8
9  14  8
9  21  8

$$$$
52822442
  -OEChem-11301218042D

 52 54  0     0  0  0  0  0  0999 V2000
    9.8349   -2.6110    0.0000 S   0  0  0  0  0  0  0  0  0  0  0  0
    7.2566   -0.2975    0.0000 O   0  0  0  0  0  0  0  0  0  0  0  0
    9.6287   -3.5895    0.0000 O   0  0  0  0  0  0  0  0  0  0  0  0
   10.0412   -1.6325    0.0000 O   0  0  0  0  0  0  0  0  0  0  0  0
    6.8994   -1.9923    0.0000 O   0  0  0  0  0  0  0  0  0  0  0  0
   13.3918   -5.1307    0.0000 O   0  0  0  0  0  0  0  0  0  0  0  0
    4.6783    2.0160    0.0000 N   0  0  0  0  0  0  0  0  0  0  0  0
    4.6783    3.6254    0.0000 N   0  0  0  0  0  0  0  0  0  0  0  0
    8.8564   -2.4048    0.0000 N   0  0  0  0  0  0  0  0  0  0  0  0
    2.8660    1.8207    0.0000 N   0  0  0  0  0  0  0  0  0  0  0  0
    2.0000    3.3207    0.0000 N   0  0  0  0  0  0  0  0  0  0  0  0
    2.8660    4.8207    0.0000 N   0  0  0  0  0  0  0  0  0  0  0  0
   13.7490   -3.4359    0.0000 N   0  0  0  0  0  0  0  0  0  0  0  0
    4.9889    1.0654    0.0000 C   0  0  0  0  0  0  0  0  0  0  0  0
    5.9674    0.8592    0.0000 C   0  0  0  0  0  0  0  0  0  0  0  0
    6.2781   -0.0913    0.0000 C   0  0  0  0  0  0  0  0  0  0  0  0
    3.7320    2.3207    0.0000 C   0  0  0  0  0  0  0  0  0  0  0  0
    3.7320    3.3207    0.0000 C   0  0  0  0  0  0  0  0  0  0  0  0
    5.2619    2.8207    0.0000 C   0  0  0  0  0  0  0  0  0  0  0  0
   10.8134   -2.8172    0.0000 C   0  0  0  0  0  0  0  0  0  0  0  0
    8.5458   -1.4543    0.0000 C   0  0  0  0  0  0  0  0  0  0  0  0
    2.8660    3.8207    0.0000 C   0  0  0  0  0  0  0  0  0  0  0  0
    7.5673   -1.2480    0.0000 C   0  0  0  0  0  0  0  0  0  0  0  0
   11.1241   -3.7677    0.0000 C   0  0  0  0  0  0  0  0  0  0  0  0
   11.4813   -2.0729    0.0000 C   0  0  0  0  0  0  0  0  0  0  0  0
   12.7705   -3.2296    0.0000 C   0  0  0  0  0  0  0  0  0  0  0  0
   12.1026   -3.9740    0.0000 C   0  0  0  0  0  0  0  0  0  0  0  0
   12.4598   -2.2791    0.0000 C   0  0  0  0  0  0  0  0  0  0  0  0
    2.0000    2.3207    0.0000 C   0  0  0  0  0  0  0  0  0  0  0  0
   14.0596   -4.3864    0.0000 C   0  0  0  0  0  0  0  0  0  0  0  0
   15.0381   -4.5926    0.0000 C   0  0  0  0  0  0  0  0  0  0  0  0
    4.3751    0.9781    0.0000 H   0  0  0  0  0  0  0  0  0  0  0  0
    4.9684    0.4458    0.0000 H   0  0  0  0  0  0  0  0  0  0  0  0
    6.5812    0.9466    0.0000 H   0  0  0  0  0  0  0  0  0  0  0  0
    5.9880    1.4789    0.0000 H   0  0  0  0  0  0  0  0  0  0  0  0
    5.6643   -0.1786    0.0000 H   0  0  0  0  0  0  0  0  0  0  0  0
    6.2575   -0.7110    0.0000 H   0  0  0  0  0  0  0  0  0  0  0  0
    5.8819    2.8207    0.0000 H   0  0  0  0  0  0  0  0  0  0  0  0
    9.1596   -1.3669    0.0000 H   0  0  0  0  0  0  0  0  0  0  0  0
    8.5663   -0.8346    0.0000 H   0  0  0  0  0  0  0  0  0  0  0  0
    8.4424   -2.8662    0.0000 H   0  0  0  0  0  0  0  0  0  0  0  0
   10.7100   -4.2292    0.0000 H   0  0  0  0  0  0  0  0  0  0  0  0
   11.2887   -1.4836    0.0000 H   0  0  0  0  0  0  0  0  0  0  0  0
   12.2952   -4.5633    0.0000 H   0  0  0  0  0  0  0  0  0  0  0  0
   12.8739   -1.8177    0.0000 H   0  0  0  0  0  0  0  0  0  0  0  0
    1.4631    2.0107    0.0000 H   0  0  0  0  0  0  0  0  0  0  0  0
    2.3291    5.1307    0.0000 H   0  0  0  0  0  0  0  0  0  0  0  0
    3.4030    5.1307    0.0000 H   0  0  0  0  0  0  0  0  0  0  0  0
   14.1630   -2.9744    0.0000 H   0  0  0  0  0  0  0  0  0  0  0  0
   14.9103   -5.1993    0.0000 H   0  0  0  0  0  0  0  0  0  0  0  0
   15.6448   -4.7205    0.0000 H   0  0  0  0  0  0  0  0  0  0  0  0
   15.1660   -3.9859    0.0000 H   0  0  0  0  0  0  0  0  0  0  0  0
  1  3  2  0  0  0  0
  1  4  2  0  0  0  0
  1  9  1  0  0  0  0
  1 20  1  0  0  0  0
  2 16  1  0  0  0  0
  2 23  1  0  0  0  0
  5 23  2  0  0  0  0
  6 30  2  0  0  0  0
  7 14  1  0  0  0  0
  7 17  1  0  0  0  0
  7 19  1  0  0  0  0
  8 18  1  0  0  0  0
  8 19  2  0  0  0  0
  9 21  1  0  0  0  0
  9 41  1  0  0  0  0
 10 17  2  0  0  0  0
 10 29  1  0  0  0  0
 11 22  1  0  0  0  0
 11 29  2  0  0  0  0
 12 22  1  0  0  0  0
 12 47  1  0  0  0  0
 12 48  1  0  0  0  0
 13 26  1  0  0  0  0
 13 30  1  0  0  0  0
 13 49  1  0  0  0  0
 14 15  1  0  0  0  0
 14 32  1  0  0  0  0
 14 33  1  0  0  0  0
 15 16  1  0  0  0  0
 15 34  1  0  0  0  0
 15 35  1  0  0  0  0
 16 36  1  0  0  0  0
 16 37  1  0  0  0  0
 17 18  1  0  0  0  0
 18 22  2  0  0  0  0
 19 38  1  0  0  0  0
 20 24  2  0  0  0  0
 20 25  1  0  0  0  0
 21 23  1  0  0  0  0
 21 39  1  0  0  0  0
 21 40  1  0  0  0  0
 24 27  1  0  0  0  0
 24 42  1  0  0  0  0
 25 28  2  0  0  0  0
 25 43  1  0  0  0  0
 26 27  2  0  0  0  0
 26 28  1  0  0  0  0
 27 44  1  0  0  0  0
 28 45  1  0  0  0  0
 29 46  1  0  0  0  0
 30 31  1  0  0  0  0
 31 50  1  0  0  0  0
 31 51  1  0  0  0  0
 31 52  1  0  0  0  0
M  END
> <PUBCHEM_COMPOUND_CID>
52822442

> <PUBCHEM_COMPOUND_CANONICALIZED>
1

> <PUBCHEM_CACTVS_COMPLEXITY>
723

> <PUBCHEM_CACTVS_HBOND_ACCEPTOR>
10

> <PUBCHEM_CACTVS_HBOND_DONOR>
3

> <PUBCHEM_CACTVS_ROTATABLE_BOND>
10

> <PUBCHEM_CACTVS_SUBSKEYS>
AAADceB7uABAAAAAAAAAAAAAAAAAAWAAAAA8QAAAAAAAAFgB/AAAHgQQQAAACAjh1wY3+b/MFAKoASfzfHDCgD0xEqAJ2LiodJiKaCLA2dGXJAhqlALIyCcQAAAAAAQAAAAAAAAACAAAAAAAAAAAAAAAAA==

> <PUBCHEM_IUPAC_OPENEYE_NAME>
3-(6-aminopurin-9-yl)propyl 2-[(4-acetamidophenyl)sulfonylamino]acetate

> <PUBCHEM_IUPAC_CAS_NAME>
2-[(4-acetamidophenyl)sulfonylamino]acetic acid 3-(6-aminopurin-9-yl)propyl ester

> <PUBCHEM_IUPAC_NAME>
3-(6-aminopurin-9-yl)propyl 2-[(4-acetamidophenyl)sulfonylamino]acetate

> <PUBCHEM_IUPAC_SYSTEMATIC_NAME>
3-(6-aminopurin-9-yl)propyl 2-[(4-acetamidophenyl)sulfonylamino]ethanoate

> <PUBCHEM_IUPAC_TRADITIONAL_NAME>
2-[(4-acetamidophenyl)sulfonylamino]acetic acid 3-adenin-9-ylpropyl ester

> <PUBCHEM_IUPAC_INCHI>
InChI=1S/C18H21N7O5S/c1-12(26)24-13-3-5-14(6-4-13)31(28,29)23-9-15(27)30-8-2-7-25-11-22-16-17(19)20-10-21-18(16)25/h3-6,10-11,23H,2,7-9H2,1H3,(H,24,26)(H2,19,20,21)

> <PUBCHEM_IUPAC_INCHIKEY>
QRFZVAPSSKGXGN-UHFFFAOYSA-N

> <PUBCHEM_XLOGP3>
0

> <PUBCHEM_EXACT_MASS>
447.132488

> <PUBCHEM_MOLECULAR_FORMULA>
C18H21N7O5S

> <PUBCHEM_MOLECULAR_WEIGHT>
447.46824

> <PUBCHEM_OPENEYE_CAN_SMILES>
CC(=O)NC1=CC=C(C=C1)S(=O)(=O)NCC(=O)OCCCN2C=NC3=C2N=CN=C3N

> <PUBCHEM_OPENEYE_ISO_SMILES>
CC(=O)NC1=CC=C(C=C1)S(=O)(=O)NCC(=O)OCCCN2C=NC3=C2N=CN=C3N

> <PUBCHEM_CACTVS_TPSA>
180

> <PUBCHEM_MONOISOTOPIC_WEIGHT>
447.132488

> <PUBCHEM_TOTAL_CHARGE>
0

> <PUBCHEM_HEAVY_ATOM_COUNT>
31

> <PUBCHEM_ATOM_DEF_STEREO_COUNT>
0

> <PUBCHEM_ATOM_UDEF_STEREO_COUNT>
0

> <PUBCHEM_BOND_DEF_STEREO_COUNT>
0

> <PUBCHEM_BOND_UDEF_STEREO_COUNT>
0

> <PUBCHEM_ISOTOPIC_ATOM_COUNT>
0

> <PUBCHEM_COMPONENT_COUNT>
1

> <PUBCHEM_CACTVS_TAUTO_COUNT>
9

> <PUBCHEM_COORDINATE_TYPE>
1
5
255

> <PUBCHEM_BONDANNOTATIONS>
10  17  8
10  29  8
11  22  8
11  29  8
17  18  8
18  22  8
20  24  8
20  25  8
24  27  8
25  28  8
26  27  8
26  28  8
7  17  8
7  19  8
8  18  8
8  19  8

$$$$
