56505406
  -OEChem-11301218112D

 39 41  0     0  0  0  0  0  0999 V2000
    7.0468    0.5000    0.0000 O   0  0  0  0  0  0  0  0  0  0  0  0
    6.1808    2.0000    0.0000 N   0  0  0  0  0  0  0  0  0  0  0  0
    5.3147    0.5000    0.0000 N   0  0  0  0  0  0  0  0  0  0  0  0
    3.5827   -2.5000    0.0000 N   0  0  0  0  0  0  0  0  0  0  0  0
    7.0468    2.5000    0.0000 C   0  0  0  0  0  0  0  0  0  0  0  0
    7.9603    2.0933    0.0000 C   0  0  0  0  0  0  0  0  0  0  0  0
    7.1513    3.4945    0.0000 C   0  0  0  0  0  0  0  0  0  0  0  0
    8.6294    2.8364    0.0000 C   0  0  0  0  0  0  0  0  0  0  0  0
    8.1294    3.7024    0.0000 C   0  0  0  0  0  0  0  0  0  0  0  0
    6.1808    1.0000    0.0000 C   0  0  0  0  0  0  0  0  0  0  0  0
    5.3147   -0.5000    0.0000 C   0  0  0  0  0  0  0  0  0  0  0  0
    4.4487   -1.0000    0.0000 C   0  0  0  0  0  0  0  0  0  0  0  0
    4.4487   -2.0000    0.0000 C   0  0  0  0  0  0  0  0  0  0  0  0
    6.1808   -1.0000    0.0000 C   0  0  0  0  0  0  0  0  0  0  0  0
    5.3147   -2.5000    0.0000 C   0  0  0  0  0  0  0  0  0  0  0  0
    6.1808   -2.0000    0.0000 C   0  0  0  0  0  0  0  0  0  0  0  0
    2.6691   -2.0933    0.0000 C   0  0  0  0  0  0  0  0  0  0  0  0
    3.4782   -3.4945    0.0000 C   0  0  0  0  0  0  0  0  0  0  0  0
    2.5000   -3.7024    0.0000 C   0  0  0  0  0  0  0  0  0  0  0  0
    2.0000   -2.8364    0.0000 C   0  0  0  0  0  0  0  0  0  0  0  0
    7.0792    1.8808    0.0000 H   0  0  0  0  0  0  0  0  0  0  0  0
    7.6503    1.5563    0.0000 H   0  0  0  0  0  0  0  0  0  0  0  0
    8.4619    1.7288    0.0000 H   0  0  0  0  0  0  0  0  0  0  0  0
    7.0865    4.1111    0.0000 H   0  0  0  0  0  0  0  0  0  0  0  0
    6.5313    3.4945    0.0000 H   0  0  0  0  0  0  0  0  0  0  0  0
    9.0443    2.3757    0.0000 H   0  0  0  0  0  0  0  0  0  0  0  0
    9.1310    3.2008    0.0000 H   0  0  0  0  0  0  0  0  0  0  0  0
    8.6958    3.9546    0.0000 H   0  0  0  0  0  0  0  0  0  0  0  0
    7.9379    4.2921    0.0000 H   0  0  0  0  0  0  0  0  0  0  0  0
    5.6438    2.3100    0.0000 H   0  0  0  0  0  0  0  0  0  0  0  0
    4.7778    0.8100    0.0000 H   0  0  0  0  0  0  0  0  0  0  0  0
    3.9118   -0.6900    0.0000 H   0  0  0  0  0  0  0  0  0  0  0  0
    6.7177   -0.6900    0.0000 H   0  0  0  0  0  0  0  0  0  0  0  0
    5.3147   -3.1200    0.0000 H   0  0  0  0  0  0  0  0  0  0  0  0
    6.7177   -2.3100    0.0000 H   0  0  0  0  0  0  0  0  0  0  0  0
    2.5402   -1.4868    0.0000 H   0  0  0  0  0  0  0  0  0  0  0  0
    3.9389   -3.9094    0.0000 H   0  0  0  0  0  0  0  0  0  0  0  0
    1.3834   -2.7716    0.0000 H   0  0  0  0  0  0  0  0  0  0  0  0
    2.2478   -4.2688    0.0000 H   0  0  0  0  0  0  0  0  0  0  0  0
  1 10  2  0  0  0  0
  2  5  1  0  0  0  0
  2 10  1  0  0  0  0
  2 30  1  0  0  0  0
  3 10  1  0  0  0  0
  3 11  1  0  0  0  0
  3 31  1  0  0  0  0
  4 13  1  0  0  0  0
  4 17  1  0  0  0  0
  4 18  1  0  0  0  0
  5  6  1  0  0  0  0
  5  7  1  0  0  0  0
  5 21  1  0  0  0  0
  6  8  1  0  0  0  0
  6 22  1  0  0  0  0
  6 23  1  0  0  0  0
  7  9  1  0  0  0  0
  7 24  1  0  0  0  0
  7 25  1  0  0  0  0
  8  9  1  0  0  0  0
  8 26  1  0  0  0  0
  8 27  1  0  0  0  0
  9 28  1  0  0  0  0
  9 29  1  0  0  0  0
 11 12  2  0  0  0  0
 11 14  1  0  0  0  0
 12 13  1  0  0  0  0
 12 32  1  0  0  0  0
 13 15  2  0  0  0  0
 14 16  2  0  0  0  0
 14 33  1  0  0  0  0
 15 16  1  0  0  0  0
 15 34  1  0  0  0  0
 16 35  1  0  0  0  0
 17 20  2  0  0  0  0
 17 36  1  0  0  0  0
 18 19  2  0  0  0  0
 18 37  1  0  0  0  0
 19 20  1  0  0  0  0
 19 39  1  0  0  0  0
 20 38  1  0  0  0  0
M  END
> <PUBCHEM_COMPOUND_CID>
56505406

> <PUBCHEM_COMPOUND_CANONICALIZED>
1

> <PUBCHEM_CACTVS_COMPLEXITY>
322

> <PUBCHEM_CACTVS_HBOND_ACCEPTOR>
1

> <PUBCHEM_CACTVS_HBOND_DONOR>
2

> <PUBCHEM_CACTVS_ROTATABLE_BOND>
3

> <PUBCHEM_CACTVS_SUBSKEYS>
AAADceB7IAAAAAAAAAAAAAAAAAAAAeIAAAAwAAAAAAAAAAABwAAAHgAQAAAACCjBEgQ9wJPMEACoADRnVACCgCAxAiAI2KA4ZJiIIOLA0dGEIAholgLIyCcQAAAAAAAAAAQAAAAAAAAACAAAAAAAAAAAAA==

> <PUBCHEM_IUPAC_OPENEYE_NAME>
1-cyclopentyl-3-(3-pyrrol-1-ylphenyl)urea

> <PUBCHEM_IUPAC_CAS_NAME>
1-cyclopentyl-3-[3-(1-pyrrolyl)phenyl]urea

> <PUBCHEM_IUPAC_NAME>
1-cyclopentyl-3-(3-pyrrol-1-ylphenyl)urea

> <PUBCHEM_IUPAC_SYSTEMATIC_NAME>
1-cyclopentyl-3-(3-pyrrol-1-ylphenyl)urea

> <PUBCHEM_IUPAC_TRADITIONAL_NAME>
1-cyclopentyl-3-(3-pyrrol-1-ylphenyl)urea

> <PUBCHEM_IUPAC_INCHI>
InChI=1S/C16H19N3O/c20-16(17-13-6-1-2-7-13)18-14-8-5-9-15(12-14)19-10-3-4-11-19/h3-5,8-13H,1-2,6-7H2,(H2,17,18,20)

> <PUBCHEM_IUPAC_INCHIKEY>
YTRWIYPLWFQCOT-UHFFFAOYSA-N

> <PUBCHEM_XLOGP3>
3

> <PUBCHEM_EXACT_MASS>
269.152812

> <PUBCHEM_MOLECULAR_FORMULA>
C16H19N3O

> <PUBCHEM_MOLECULAR_WEIGHT>
269.34156

> <PUBCHEM_OPENEYE_CAN_SMILES>
C1CCC(C1)NC(=O)NC2=CC=CC(=C2)N3C=CC=C3

> <PUBCHEM_OPENEYE_ISO_SMILES>
C1CCC(C1)NC(=O)NC2=CC=CC(=C2)N3C=CC=C3

> <PUBCHEM_CACTVS_TPSA>
46.1

> <PUBCHEM_MONOISOTOPIC_WEIGHT>
269.152812

> <PUBCHEM_TOTAL_CHARGE>
0

> <PUBCHEM_HEAVY_ATOM_COUNT>
20

> <PUBCHEM_ATOM_DEF_STEREO_COUNT>
0

> <PUBCHEM_ATOM_UDEF_STEREO_COUNT>
0

> <PUBCHEM_BOND_DEF_STEREO_COUNT>
0

> <PUBCHEM_BOND_UDEF_STEREO_COUNT>
0

> <PUBCHEM_ISOTOPIC_ATOM_COUNT>
0

> <PUBCHEM_COMPONENT_COUNT>
1

> <PUBCHEM_CACTVS_TAUTO_COUNT>
3

> <PUBCHEM_COORDINATE_TYPE>
1
5
255

> <PUBCHEM_BONDANNOTATIONS>
11  12  8
11  14  8
12  13  8
13  15  8
14  16  8
15  16  8
17  20  8
18  19  8
19  20  8
4  17  8
4  18  8

$$$$
56522835
  -OEChem-11301218122D

 49 52  0     0  0  0  0  0  0999 V2000
    6.6353   -1.1127    0.0000 O   0  0  0  0  0  0  0  0  0  0  0  0
    6.2781    0.5822    0.0000 N   0  0  0  0  0  0  0  0  0  0  0  0
    4.6783   -3.1346    0.0000 N   0  0  0  0  0  0  0  0  0  0  0  0
    7.2566    0.7884    0.0000 C   0  0  0  0  0  0  0  0  0  0  0  0
    8.2351    0.9946    0.0000 C   0  0  0  0  0  0  0  0  0  0  0  0
    7.0504    1.7669    0.0000 C   0  0  0  0  0  0  0  0  0  0  0  0
    7.4628   -0.1901    0.0000 C   0  0  0  0  0  0  0  0  0  0  0  0
    4.9889   -0.5746    0.0000 C   0  0  0  0  0  0  0  0  0  0  0  0
    5.9674   -0.3684    0.0000 C   0  0  0  0  0  0  0  0  0  0  0  0
    4.6783   -1.5251    0.0000 C   0  0  0  0  0  0  0  0  0  0  0  0
    3.7320   -1.8298    0.0000 C   0  0  0  0  0  0  0  0  0  0  0  0
    8.5458    1.9451    0.0000 C   0  0  0  0  0  0  0  0  0  0  0  0
    7.7947    2.4347    0.0000 C   0  0  0  0  0  0  0  0  0  0  0  0
    8.9030    0.2503    0.0000 C   0  0  0  0  0  0  0  0  0  0  0  0
    6.0999    2.0775    0.0000 C   0  0  0  0  0  0  0  0  0  0  0  0
    3.7320   -2.8298    0.0000 C   0  0  0  0  0  0  0  0  0  0  0  0
    5.2619   -2.3298    0.0000 C   0  0  0  0  0  0  0  0  0  0  0  0
    9.5243    2.1513    0.0000 C   0  0  0  0  0  0  0  0  0  0  0  0
    7.5885    3.4132    0.0000 C   0  0  0  0  0  0  0  0  0  0  0  0
    9.8815    0.4565    0.0000 C   0  0  0  0  0  0  0  0  0  0  0  0
    5.8936    3.0560    0.0000 C   0  0  0  0  0  0  0  0  0  0  0  0
    2.8660   -1.3298    0.0000 C   0  0  0  0  0  0  0  0  0  0  0  0
    2.8660   -3.3298    0.0000 C   0  0  0  0  0  0  0  0  0  0  0  0
    6.6380    3.7239    0.0000 C   0  0  0  0  0  0  0  0  0  0  0  0
   10.1921    1.4070    0.0000 C   0  0  0  0  0  0  0  0  0  0  0  0
    2.0000   -1.8298    0.0000 C   0  0  0  0  0  0  0  0  0  0  0  0
    2.0000   -2.8298    0.0000 C   0  0  0  0  0  0  0  0  0  0  0  0
    5.8640    1.0436    0.0000 H   0  0  0  0  0  0  0  0  0  0  0  0
    6.8562   -0.3180    0.0000 H   0  0  0  0  0  0  0  0  0  0  0  0
    7.5907   -0.7968    0.0000 H   0  0  0  0  0  0  0  0  0  0  0  0
    8.0695   -0.0623    0.0000 H   0  0  0  0  0  0  0  0  0  0  0  0
    4.9684    0.0451    0.0000 H   0  0  0  0  0  0  0  0  0  0  0  0
    4.3751   -0.4872    0.0000 H   0  0  0  0  0  0  0  0  0  0  0  0
    8.3840    2.2421    0.0000 H   0  0  0  0  0  0  0  0  0  0  0  0
    8.1317    2.4066    0.0000 H   0  0  0  0  0  0  0  0  0  0  0  0
    5.6384    1.6635    0.0000 H   0  0  0  0  0  0  0  0  0  0  0  0
    8.7104   -0.3390    0.0000 H   0  0  0  0  0  0  0  0  0  0  0  0
    5.8819   -2.3298    0.0000 H   0  0  0  0  0  0  0  0  0  0  0  0
    4.8709   -3.7239    0.0000 H   0  0  0  0  0  0  0  0  0  0  0  0
    8.0499    3.8273    0.0000 H   0  0  0  0  0  0  0  0  0  0  0  0
    9.7169    2.7406    0.0000 H   0  0  0  0  0  0  0  0  0  0  0  0
    5.3043    3.2487    0.0000 H   0  0  0  0  0  0  0  0  0  0  0  0
   10.2955   -0.0050    0.0000 H   0  0  0  0  0  0  0  0  0  0  0  0
    2.8660   -0.7098    0.0000 H   0  0  0  0  0  0  0  0  0  0  0  0
    2.8660   -3.9498    0.0000 H   0  0  0  0  0  0  0  0  0  0  0  0
    6.5101    4.3306    0.0000 H   0  0  0  0  0  0  0  0  0  0  0  0
   10.7988    1.5349    0.0000 H   0  0  0  0  0  0  0  0  0  0  0  0
    1.4631   -1.5198    0.0000 H   0  0  0  0  0  0  0  0  0  0  0  0
    1.4631   -3.1398    0.0000 H   0  0  0  0  0  0  0  0  0  0  0  0
  1  9  2  0  0  0  0
  2  4  1  0  0  0  0
  2  9  1  0  0  0  0
  2 28  1  0  0  0  0
  3 16  1  0  0  0  0
  3 17  1  0  0  0  0
  3 39  1  0  0  0  0
  4  5  1  0  0  0  0
  4  6  1  0  0  0  0
  4  7  1  0  0  0  0
  5 12  2  0  0  0  0
  5 14  1  0  0  0  0
  6 13  2  0  0  0  0
  6 15  1  0  0  0  0
  7 29  1  0  0  0  0
  7 30  1  0  0  0  0
  7 31  1  0  0  0  0
  8  9  1  0  0  0  0
  8 10  1  0  0  0  0
  8 32  1  0  0  0  0
  8 33  1  0  0  0  0
 10 11  1  0  0  0  0
 10 17  2  0  0  0  0
 11 16  1  0  0  0  0
 11 22  2  0  0  0  0
 12 18  1  0  0  0  0
 12 35  1  0  0  0  0
 13 19  1  0  0  0  0
 13 34  1  0  0  0  0
 14 20  2  0  0  0  0
 14 37  1  0  0  0  0
 15 21  2  0  0  0  0
 15 36  1  0  0  0  0
 16 23  2  0  0  0  0
 17 38  1  0  0  0  0
 18 25  2  0  0  0  0
 18 41  1  0  0  0  0
 19 24  2  0  0  0  0
 19 40  1  0  0  0  0
 20 25  1  0  0  0  0
 20 43  1  0  0  0  0
 21 24  1  0  0  0  0
 21 42  1  0  0  0  0
 22 26  1  0  0  0  0
 22 44  1  0  0  0  0
 23 27  1  0  0  0  0
 23 45  1  0  0  0  0
 24 46  1  0  0  0  0
 25 47  1  0  0  0  0
 26 27  2  0  0  0  0
 26 48  1  0  0  0  0
 27 49  1  0  0  0  0
M  END
> <PUBCHEM_COMPOUND_CID>
56522835

> <PUBCHEM_COMPOUND_CANONICALIZED>
1

> <PUBCHEM_CACTVS_COMPLEXITY>
475

> <PUBCHEM_CACTVS_HBOND_ACCEPTOR>
1

> <PUBCHEM_CACTVS_HBOND_DONOR>
2

> <PUBCHEM_CACTVS_ROTATABLE_BOND>
5

> <PUBCHEM_CACTVS_SUBSKEYS>
AAADceB7IAAAAAAAAAAAAAAAAAAAAWAAAAAwYMAAAAAAAFgB9AAAHgAQAAAADIjBngQ+wPLJkACoAzV3VACCgCAxAiAI2aE4ZJgIIPLAlZGEIAhglADIyAccicCegAAAAAACAAAAAAAAAAQAAAAAAAAAAA==

> <PUBCHEM_IUPAC_OPENEYE_NAME>
N-(1,1-diphenylethyl)-2-(1H-indol-3-yl)acetamide

> <PUBCHEM_IUPAC_CAS_NAME>
N-(1,1-diphenylethyl)-2-(1H-indol-3-yl)acetamide

> <PUBCHEM_IUPAC_NAME>
N-(1,1-diphenylethyl)-2-(1H-indol-3-yl)acetamide

> <PUBCHEM_IUPAC_SYSTEMATIC_NAME>
N-(1,1-diphenylethyl)-2-(1H-indol-3-yl)ethanamide

> <PUBCHEM_IUPAC_TRADITIONAL_NAME>
N-(1,1-diphenylethyl)-2-(1H-indol-3-yl)acetamide

> <PUBCHEM_IUPAC_INCHI>
InChI=1S/C24H22N2O/c1-24(19-10-4-2-5-11-19,20-12-6-3-7-13-20)26-23(27)16-18-17-25-22-15-9-8-14-21(18)22/h2-15,17,25H,16H2,1H3,(H,26,27)

> <PUBCHEM_IUPAC_INCHIKEY>
OFACGQBYPUCADM-UHFFFAOYSA-N

> <PUBCHEM_XLOGP3>
4.5

> <PUBCHEM_EXACT_MASS>
354.173213

> <PUBCHEM_MOLECULAR_FORMULA>
C24H22N2O

> <PUBCHEM_MOLECULAR_WEIGHT>
354.44428

> <PUBCHEM_OPENEYE_CAN_SMILES>
CC(C1=CC=CC=C1)(C2=CC=CC=C2)NC(=O)CC3=CNC4=CC=CC=C43

> <PUBCHEM_OPENEYE_ISO_SMILES>
CC(C1=CC=CC=C1)(C2=CC=CC=C2)NC(=O)CC3=CNC4=CC=CC=C43

> <PUBCHEM_CACTVS_TPSA>
44.9

> <PUBCHEM_MONOISOTOPIC_WEIGHT>
354.173213

> <PUBCHEM_TOTAL_CHARGE>
0

> <PUBCHEM_HEAVY_ATOM_COUNT>
27

> <PUBCHEM_ATOM_DEF_STEREO_COUNT>
0

> <PUBCHEM_ATOM_UDEF_STEREO_COUNT>
0

> <PUBCHEM_BOND_DEF_STEREO_COUNT>
0

> <PUBCHEM_BOND_UDEF_STEREO_COUNT>
0

> <PUBCHEM_ISOTOPIC_ATOM_COUNT>
0

> <PUBCHEM_COMPONENT_COUNT>
1

> <PUBCHEM_CACTVS_TAUTO_COUNT>
2

> <PUBCHEM_COORDINATE_TYPE>
1
5
255

> <PUBCHEM_BONDANNOTATIONS>
10  11  8
10  17  8
11  16  8
11  22  8
12  18  8
13  19  8
14  20  8
15  21  8
16  23  8
18  25  8
19  24  8
20  25  8
21  24  8
22  26  8
23  27  8
26  27  8
3  16  8
3  17  8
5  12  8
5  14  8
6  13  8
6  15  8

$$$$
56522844
  -OEChem-11301218122D

 52 55  0     0  0  0  0  0  0999 V2000
    5.6103    0.8932    0.0000 O   0  0  0  0  0  0  0  0  0  0  0  0
    7.2566    0.3551    0.0000 N   0  0  0  0  0  0  0  0  0  0  0  0
    4.6783   -3.5678    0.0000 N   0  0  0  0  0  0  0  0  0  0  0  0
    7.5673    1.3056    0.0000 C   0  0  0  0  0  0  0  0  0  0  0  0
    7.8779    2.2561    0.0000 C   0  0  0  0  0  0  0  0  0  0  0  0
    8.5178    0.9950    0.0000 C   0  0  0  0  0  0  0  0  0  0  0  0
    6.6168    1.6163    0.0000 C   0  0  0  0  0  0  0  0  0  0  0  0
    5.9674   -0.8016    0.0000 C   0  0  0  0  0  0  0  0  0  0  0  0
    4.9889   -1.0079    0.0000 C   0  0  0  0  0  0  0  0  0  0  0  0
    6.2781    0.1489    0.0000 C   0  0  0  0  0  0  0  0  0  0  0  0
    4.6783   -1.9584    0.0000 C   0  0  0  0  0  0  0  0  0  0  0  0
    3.7320   -2.2631    0.0000 C   0  0  0  0  0  0  0  0  0  0  0  0
    8.8564    2.4623    0.0000 C   0  0  0  0  0  0  0  0  0  0  0  0
    8.7240    0.0164    0.0000 C   0  0  0  0  0  0  0  0  0  0  0  0
    7.2101    3.0004    0.0000 C   0  0  0  0  0  0  0  0  0  0  0  0
    9.2621    1.6628    0.0000 C   0  0  0  0  0  0  0  0  0  0  0  0
    3.7320   -3.2631    0.0000 C   0  0  0  0  0  0  0  0  0  0  0  0
    5.2619   -2.7631    0.0000 C   0  0  0  0  0  0  0  0  0  0  0  0
    2.8660   -1.7631    0.0000 C   0  0  0  0  0  0  0  0  0  0  0  0
    9.1671    3.4129    0.0000 C   0  0  0  0  0  0  0  0  0  0  0  0
    9.6745   -0.2942    0.0000 C   0  0  0  0  0  0  0  0  0  0  0  0
    7.5208    3.9510    0.0000 C   0  0  0  0  0  0  0  0  0  0  0  0
   10.2126    1.3521    0.0000 C   0  0  0  0  0  0  0  0  0  0  0  0
    2.8660   -3.7631    0.0000 C   0  0  0  0  0  0  0  0  0  0  0  0
   10.4188    0.3736    0.0000 C   0  0  0  0  0  0  0  0  0  0  0  0
    8.4993    4.1572    0.0000 C   0  0  0  0  0  0  0  0  0  0  0  0
    2.0000   -2.2631    0.0000 C   0  0  0  0  0  0  0  0  0  0  0  0
    2.0000   -3.2631    0.0000 C   0  0  0  0  0  0  0  0  0  0  0  0
    7.6707   -0.1064    0.0000 H   0  0  0  0  0  0  0  0  0  0  0  0
    6.8094    2.2056    0.0000 H   0  0  0  0  0  0  0  0  0  0  0  0
    6.0274    1.8089    0.0000 H   0  0  0  0  0  0  0  0  0  0  0  0
    6.4241    1.0270    0.0000 H   0  0  0  0  0  0  0  0  0  0  0  0
    5.9880   -1.4213    0.0000 H   0  0  0  0  0  0  0  0  0  0  0  0
    6.5812   -0.8890    0.0000 H   0  0  0  0  0  0  0  0  0  0  0  0
    4.9684   -0.3882    0.0000 H   0  0  0  0  0  0  0  0  0  0  0  0
    4.3751   -0.9205    0.0000 H   0  0  0  0  0  0  0  0  0  0  0  0
    9.2705    2.0009    0.0000 H   0  0  0  0  0  0  0  0  0  0  0  0
    8.2625   -0.3976    0.0000 H   0  0  0  0  0  0  0  0  0  0  0  0
    6.6034    2.8726    0.0000 H   0  0  0  0  0  0  0  0  0  0  0  0
    9.1342    2.2695    0.0000 H   0  0  0  0  0  0  0  0  0  0  0  0
    5.8819   -2.7631    0.0000 H   0  0  0  0  0  0  0  0  0  0  0  0
    4.8709   -4.1572    0.0000 H   0  0  0  0  0  0  0  0  0  0  0  0
    2.8660   -1.1431    0.0000 H   0  0  0  0  0  0  0  0  0  0  0  0
    9.7738    3.5407    0.0000 H   0  0  0  0  0  0  0  0  0  0  0  0
    9.8024   -0.9009    0.0000 H   0  0  0  0  0  0  0  0  0  0  0  0
    7.1067    4.4124    0.0000 H   0  0  0  0  0  0  0  0  0  0  0  0
   10.6741    1.7662    0.0000 H   0  0  0  0  0  0  0  0  0  0  0  0
    2.8660   -4.3831    0.0000 H   0  0  0  0  0  0  0  0  0  0  0  0
   11.0082    0.1810    0.0000 H   0  0  0  0  0  0  0  0  0  0  0  0
    8.6919    4.7465    0.0000 H   0  0  0  0  0  0  0  0  0  0  0  0
    1.4631   -1.9531    0.0000 H   0  0  0  0  0  0  0  0  0  0  0  0
    1.4631   -3.5731    0.0000 H   0  0  0  0  0  0  0  0  0  0  0  0
  1 10  2  0  0  0  0
  2  4  1  0  0  0  0
  2 10  1  0  0  0  0
  2 29  1  0  0  0  0
  3 17  1  0  0  0  0
  3 18  1  0  0  0  0
  3 42  1  0  0  0  0
  4  5  1  0  0  0  0
  4  6  1  0  0  0  0
  4  7  1  0  0  0  0
  5 13  2  0  0  0  0
  5 15  1  0  0  0  0
  6 14  2  0  0  0  0
  6 16  1  0  0  0  0
  7 30  1  0  0  0  0
  7 31  1  0  0  0  0
  7 32  1  0  0  0  0
  8  9  1  0  0  0  0
  8 10  1  0  0  0  0
  8 33  1  0  0  0  0
  8 34  1  0  0  0  0
  9 11  1  0  0  0  0
  9 35  1  0  0  0  0
  9 36  1  0  0  0  0
 11 12  1  0  0  0  0
 11 18  2  0  0  0  0
 12 17  1  0  0  0  0
 12 19  2  0  0  0  0
 13 20  1  0  0  0  0
 13 37  1  0  0  0  0
 14 21  1  0  0  0  0
 14 38  1  0  0  0  0
 15 22  2  0  0  0  0
 15 39  1  0  0  0  0
 16 23  2  0  0  0  0
 16 40  1  0  0  0  0
 17 24  2  0  0  0  0
 18 41  1  0  0  0  0
 19 27  1  0  0  0  0
 19 43  1  0  0  0  0
 20 26  2  0  0  0  0
 20 44  1  0  0  0  0
 21 25  2  0  0  0  0
 21 45  1  0  0  0  0
 22 26  1  0  0  0  0
 22 46  1  0  0  0  0
 23 25  1  0  0  0  0
 23 47  1  0  0  0  0
 24 28  1  0  0  0  0
 24 48  1  0  0  0  0
 25 49  1  0  0  0  0
 26 50  1  0  0  0  0
 27 28  2  0  0  0  0
 27 51  1  0  0  0  0
 28 52  1  0  0  0  0
M  END
> <PUBCHEM_COMPOUND_CID>
56522844

> <PUBCHEM_COMPOUND_CANONICALIZED>
1

> <PUBCHEM_CACTVS_COMPLEXITY>
489

> <PUBCHEM_CACTVS_HBOND_ACCEPTOR>
1

> <PUBCHEM_CACTVS_HBOND_DONOR>
2

> <PUBCHEM_CACTVS_ROTATABLE_BOND>
6

> <PUBCHEM_CACTVS_SUBSKEYS>
AAADceB7IAAAAAAAAAAAAAAAAAAAAWAAAAAwYMAAAAAAAFgB9AAAHgAQAAAADIjBngQ+wPLJkACoAzV3VACCgCAxAiAI2aE4ZJgIIPLAkZGEIAhglADIyAcYicCOgAAAAAACAAAAAAAAAAQAAAAAAAAAAA==

> <PUBCHEM_IUPAC_OPENEYE_NAME>
N-(1,1-diphenylethyl)-3-(1H-indol-3-yl)propanamide

> <PUBCHEM_IUPAC_CAS_NAME>
N-(1,1-diphenylethyl)-3-(1H-indol-3-yl)propanamide

> <PUBCHEM_IUPAC_NAME>
N-(1,1-diphenylethyl)-3-(1H-indol-3-yl)propanamide

> <PUBCHEM_IUPAC_SYSTEMATIC_NAME>
N-(1,1-diphenylethyl)-3-(1H-indol-3-yl)propanamide

> <PUBCHEM_IUPAC_TRADITIONAL_NAME>
N-(1,1-diphenylethyl)-3-(1H-indol-3-yl)propionamide

> <PUBCHEM_IUPAC_INCHI>
InChI=1S/C25H24N2O/c1-25(20-10-4-2-5-11-20,21-12-6-3-7-13-21)27-24(28)17-16-19-18-26-23-15-9-8-14-22(19)23/h2-15,18,26H,16-17H2,1H3,(H,27,28)

> <PUBCHEM_IUPAC_INCHIKEY>
ZVIXVFIYZZKWIP-UHFFFAOYSA-N

> <PUBCHEM_XLOGP3>
4.9

> <PUBCHEM_EXACT_MASS>
368.188863

> <PUBCHEM_MOLECULAR_FORMULA>
C25H24N2O

> <PUBCHEM_MOLECULAR_WEIGHT>
368.47086

> <PUBCHEM_OPENEYE_CAN_SMILES>
CC(C1=CC=CC=C1)(C2=CC=CC=C2)NC(=O)CCC3=CNC4=CC=CC=C43

> <PUBCHEM_OPENEYE_ISO_SMILES>
CC(C1=CC=CC=C1)(C2=CC=CC=C2)NC(=O)CCC3=CNC4=CC=CC=C43

> <PUBCHEM_CACTVS_TPSA>
44.9

> <PUBCHEM_MONOISOTOPIC_WEIGHT>
368.188863

> <PUBCHEM_TOTAL_CHARGE>
0

> <PUBCHEM_HEAVY_ATOM_COUNT>
28

> <PUBCHEM_ATOM_DEF_STEREO_COUNT>
0

> <PUBCHEM_ATOM_UDEF_STEREO_COUNT>
0

> <PUBCHEM_BOND_DEF_STEREO_COUNT>
0

> <PUBCHEM_BOND_UDEF_STEREO_COUNT>
0

> <PUBCHEM_ISOTOPIC_ATOM_COUNT>
0

> <PUBCHEM_COMPONENT_COUNT>
1

> <PUBCHEM_CACTVS_TAUTO_COUNT>
2

> <PUBCHEM_COORDINATE_TYPE>
1
5
255

> <PUBCHEM_BONDANNOTATIONS>
11  12  8
11  18  8
12  17  8
12  19  8
13  20  8
14  21  8
15  22  8
16  23  8
17  24  8
19  27  8
20  26  8
21  25  8
22  26  8
23  25  8
24  28  8
27  28  8
3  17  8
3  18  8
5  13  8
5  15  8
6  14  8
6  16  8

$$$$
56522860
  -OEChem-11301218122D

 42 44  0     0  0  0  0  0  0999 V2000
    2.0000   -1.7500    0.0000 I   0  0  0  0  0  0  0  0  0  0  0  0
    2.8660   -0.2500    0.0000 O   0  0  0  0  0  0  0  0  0  0  0  0
    4.5981   -0.2500    0.0000 N   0  0  0  0  0  0  0  0  0  0  0  0
    4.5981    0.7500    0.0000 C   0  0  0  0  0  0  0  0  0  0  0  0
    4.5981    1.7500    0.0000 C   0  0  0  0  0  0  0  0  0  0  0  0
    5.5981    0.7500    0.0000 C   0  0  0  0  0  0  0  0  0  0  0  0
    3.5981    0.7500    0.0000 C   0  0  0  0  0  0  0  0  0  0  0  0
    5.4641    2.2500    0.0000 C   0  0  0  0  0  0  0  0  0  0  0  0
    6.0981   -0.1160    0.0000 C   0  0  0  0  0  0  0  0  0  0  0  0
    3.7320    2.2500    0.0000 C   0  0  0  0  0  0  0  0  0  0  0  0
    6.0981    1.6160    0.0000 C   0  0  0  0  0  0  0  0  0  0  0  0
    3.7320   -0.7500    0.0000 C   0  0  0  0  0  0  0  0  0  0  0  0
    5.4641    3.2500    0.0000 C   0  0  0  0  0  0  0  0  0  0  0  0
    7.0981   -0.1160    0.0000 C   0  0  0  0  0  0  0  0  0  0  0  0
    7.0981    1.6160    0.0000 C   0  0  0  0  0  0  0  0  0  0  0  0
    3.7320    3.2500    0.0000 C   0  0  0  0  0  0  0  0  0  0  0  0
    3.7320   -1.7500    0.0000 C   0  0  0  0  0  0  0  0  0  0  0  0
    7.5981    0.7500    0.0000 C   0  0  0  0  0  0  0  0  0  0  0  0
    4.5981    3.7500    0.0000 C   0  0  0  0  0  0  0  0  0  0  0  0
    2.8660   -2.2500    0.0000 C   0  0  0  0  0  0  0  0  0  0  0  0
    4.5981   -2.2500    0.0000 C   0  0  0  0  0  0  0  0  0  0  0  0
    2.8660   -3.2500    0.0000 C   0  0  0  0  0  0  0  0  0  0  0  0
    4.5981   -3.2500    0.0000 C   0  0  0  0  0  0  0  0  0  0  0  0
    3.7320   -3.7500    0.0000 C   0  0  0  0  0  0  0  0  0  0  0  0
    3.5981    1.3700    0.0000 H   0  0  0  0  0  0  0  0  0  0  0  0
    2.9781    0.7500    0.0000 H   0  0  0  0  0  0  0  0  0  0  0  0
    3.5981    0.1300    0.0000 H   0  0  0  0  0  0  0  0  0  0  0  0
    5.1350   -0.5600    0.0000 H   0  0  0  0  0  0  0  0  0  0  0  0
    6.0010    1.9400    0.0000 H   0  0  0  0  0  0  0  0  0  0  0  0
    5.7881   -0.6530    0.0000 H   0  0  0  0  0  0  0  0  0  0  0  0
    3.1951    1.9400    0.0000 H   0  0  0  0  0  0  0  0  0  0  0  0
    5.7881    2.1530    0.0000 H   0  0  0  0  0  0  0  0  0  0  0  0
    6.0010    3.5600    0.0000 H   0  0  0  0  0  0  0  0  0  0  0  0
    7.4081   -0.6530    0.0000 H   0  0  0  0  0  0  0  0  0  0  0  0
    3.1951    3.5600    0.0000 H   0  0  0  0  0  0  0  0  0  0  0  0
    7.4081    2.1530    0.0000 H   0  0  0  0  0  0  0  0  0  0  0  0
    4.5981    4.3700    0.0000 H   0  0  0  0  0  0  0  0  0  0  0  0
    8.2181    0.7500    0.0000 H   0  0  0  0  0  0  0  0  0  0  0  0
    5.1350   -1.9400    0.0000 H   0  0  0  0  0  0  0  0  0  0  0  0
    2.3291   -3.5600    0.0000 H   0  0  0  0  0  0  0  0  0  0  0  0
    5.1350   -3.5600    0.0000 H   0  0  0  0  0  0  0  0  0  0  0  0
    3.7320   -4.3700    0.0000 H   0  0  0  0  0  0  0  0  0  0  0  0
  1 20  1  0  0  0  0
  2 12  2  0  0  0  0
  3  4  1  0  0  0  0
  3 12  1  0  0  0  0
  3 28  1  0  0  0  0
  4  5  1  0  0  0  0
  4  6  1  0  0  0  0
  4  7  1  0  0  0  0
  5  8  2  0  0  0  0
  5 10  1  0  0  0  0
  6  9  2  0  0  0  0
  6 11  1  0  0  0  0
  7 25  1  0  0  0  0
  7 26  1  0  0  0  0
  7 27  1  0  0  0  0
  8 13  1  0  0  0  0
  8 29  1  0  0  0  0
  9 14  1  0  0  0  0
  9 30  1  0  0  0  0
 10 16  2  0  0  0  0
 10 31  1  0  0  0  0
 11 15  2  0  0  0  0
 11 32  1  0  0  0  0
 12 17  1  0  0  0  0
 13 19  2  0  0  0  0
 13 33  1  0  0  0  0
 14 18  2  0  0  0  0
 14 34  1  0  0  0  0
 15 18  1  0  0  0  0
 15 36  1  0  0  0  0
 16 19  1  0  0  0  0
 16 35  1  0  0  0  0
 17 20  1  0  0  0  0
 17 21  2  0  0  0  0
 18 38  1  0  0  0  0
 19 37  1  0  0  0  0
 20 22  2  0  0  0  0
 21 23  1  0  0  0  0
 21 39  1  0  0  0  0
 22 24  1  0  0  0  0
 22 40  1  0  0  0  0
 23 24  2  0  0  0  0
 23 41  1  0  0  0  0
 24 42  1  0  0  0  0
M  END
> <PUBCHEM_COMPOUND_CID>
56522860

> <PUBCHEM_COMPOUND_CANONICALIZED>
1

> <PUBCHEM_CACTVS_COMPLEXITY>
394

> <PUBCHEM_CACTVS_HBOND_ACCEPTOR>
1

> <PUBCHEM_CACTVS_HBOND_DONOR>
1

> <PUBCHEM_CACTVS_ROTATABLE_BOND>
4

> <PUBCHEM_CACTVS_SUBSKEYS>
AAADceB6IAAAAgAAAAAAAAAAAAAAAAAAAAAwYMAAAAAAAAABUAAAHgAwAAAADIiDmAAyAILAAACIAiFSEACCAAAkAAAIiAEABMgIIDKAlRGEIQhglACIiYcYiMCOgAAAAAAAAAAAAAAAAAAAAAAAAAAAAA==

> <PUBCHEM_IUPAC_OPENEYE_NAME>
N-(1,1-diphenylethyl)-2-iodo-benzamide

> <PUBCHEM_IUPAC_CAS_NAME>
N-(1,1-diphenylethyl)-2-iodobenzamide

> <PUBCHEM_IUPAC_NAME>
N-(1,1-diphenylethyl)-2-iodobenzamide

> <PUBCHEM_IUPAC_SYSTEMATIC_NAME>
N-(1,1-diphenylethyl)-2-iodanyl-benzamide

> <PUBCHEM_IUPAC_TRADITIONAL_NAME>
N-(1,1-diphenylethyl)-2-iodo-benzamide

> <PUBCHEM_IUPAC_INCHI>
InChI=1S/C21H18INO/c1-21(16-10-4-2-5-11-16,17-12-6-3-7-13-17)23-20(24)18-14-8-9-15-19(18)22/h2-15H,1H3,(H,23,24)

> <PUBCHEM_IUPAC_INCHIKEY>
YXTVWSYPBZSSNG-UHFFFAOYSA-N

> <PUBCHEM_XLOGP3>
4.6

> <PUBCHEM_EXACT_MASS>
427.043312

> <PUBCHEM_MOLECULAR_FORMULA>
C21H18INO

> <PUBCHEM_MOLECULAR_WEIGHT>
427.27819

> <PUBCHEM_OPENEYE_CAN_SMILES>
CC(C1=CC=CC=C1)(C2=CC=CC=C2)NC(=O)C3=CC=CC=C3I

> <PUBCHEM_OPENEYE_ISO_SMILES>
CC(C1=CC=CC=C1)(C2=CC=CC=C2)NC(=O)C3=CC=CC=C3I

> <PUBCHEM_CACTVS_TPSA>
29.1

> <PUBCHEM_MONOISOTOPIC_WEIGHT>
427.043312

> <PUBCHEM_TOTAL_CHARGE>
0

> <PUBCHEM_HEAVY_ATOM_COUNT>
24

> <PUBCHEM_ATOM_DEF_STEREO_COUNT>
0

> <PUBCHEM_ATOM_UDEF_STEREO_COUNT>
0

> <PUBCHEM_BOND_DEF_STEREO_COUNT>
0

> <PUBCHEM_BOND_UDEF_STEREO_COUNT>
0

> <PUBCHEM_ISOTOPIC_ATOM_COUNT>
0

> <PUBCHEM_COMPONENT_COUNT>
1

> <PUBCHEM_CACTVS_TAUTO_COUNT>
2

> <PUBCHEM_COORDINATE_TYPE>
1
5
255

> <PUBCHEM_BONDANNOTATIONS>
10  16  8
11  15  8
13  19  8
14  18  8
15  18  8
16  19  8
17  20  8
17  21  8
20  22  8
21  23  8
22  24  8
23  24  8
5  10  8
5  8  8
6  11  8
6  9  8
8  13  8
9  14  8

$$$$
