45693106
  -OEChem-11301217562D

 39 40  0     0  0  0  0  0  0999 V2000
   14.1244   -1.8170    0.0000 Cl  0  0  0  0  0  0  0  0  0  0  0  0
   12.3923    2.1830    0.0000 F   0  0  0  0  0  0  0  0  0  0  0  0
   13.3923    1.1830    0.0000 F   0  0  0  0  0  0  0  0  0  0  0  0
   11.3923    1.1830    0.0000 F   0  0  0  0  0  0  0  0  0  0  0  0
    2.0000   -0.8170    0.0000 F   0  0  0  0  0  0  0  0  0  0  0  0
    2.3660   -2.1830    0.0000 F   0  0  0  0  0  0  0  0  0  0  0  0
    3.3660   -0.4510    0.0000 F   0  0  0  0  0  0  0  0  0  0  0  0
    8.0622   -0.3170    0.0000 O   0  0  0  0  0  0  0  0  0  0  0  0
    3.7320   -1.8170    0.0000 O   0  0  0  0  0  0  0  0  0  0  0  0
    9.7942   -1.3170    0.0000 O   0  0  0  0  0  0  0  0  0  0  0  0
    7.1962    1.1830    0.0000 O   0  0  0  0  0  0  0  0  0  0  0  0
   10.6603    0.1830    0.0000 N   0  0  0  0  0  0  0  0  0  0  0  0
   11.5263   -0.3170    0.0000 C   0  0  0  0  0  0  0  0  0  0  0  0
   12.3923    0.1830    0.0000 C   0  0  0  0  0  0  0  0  0  0  0  0
   11.5263   -1.3170    0.0000 C   0  0  0  0  0  0  0  0  0  0  0  0
   13.2583   -0.3170    0.0000 C   0  0  0  0  0  0  0  0  0  0  0  0
   12.3923    1.1830    0.0000 C   0  0  0  0  0  0  0  0  0  0  0  0
   12.3923   -1.8170    0.0000 C   0  0  0  0  0  0  0  0  0  0  0  0
   13.2583   -1.3170    0.0000 C   0  0  0  0  0  0  0  0  0  0  0  0
    9.7942   -0.3170    0.0000 C   0  0  0  0  0  0  0  0  0  0  0  0
    8.9282    0.1830    0.0000 C   0  0  0  0  0  0  0  0  0  0  0  0
    6.3301   -0.3170    0.0000 C   0  0  0  0  0  0  0  0  0  0  0  0
    5.4641    0.1830    0.0000 C   0  0  0  0  0  0  0  0  0  0  0  0
    6.3301   -1.3170    0.0000 C   0  0  0  0  0  0  0  0  0  0  0  0
    4.5981   -1.3170    0.0000 C   0  0  0  0  0  0  0  0  0  0  0  0
    7.1962    0.1830    0.0000 C   0  0  0  0  0  0  0  0  0  0  0  0
    4.5981   -0.3170    0.0000 C   0  0  0  0  0  0  0  0  0  0  0  0
    5.4641   -1.8170    0.0000 C   0  0  0  0  0  0  0  0  0  0  0  0
    2.8660   -1.3170    0.0000 C   0  0  0  0  0  0  0  0  0  0  0  0
   10.9893   -1.6270    0.0000 H   0  0  0  0  0  0  0  0  0  0  0  0
   10.6603    0.8030    0.0000 H   0  0  0  0  0  0  0  0  0  0  0  0
   13.7953   -0.0070    0.0000 H   0  0  0  0  0  0  0  0  0  0  0  0
   12.3923   -2.4370    0.0000 H   0  0  0  0  0  0  0  0  0  0  0  0
    9.3267    0.6580    0.0000 H   0  0  0  0  0  0  0  0  0  0  0  0
    8.5297    0.6580    0.0000 H   0  0  0  0  0  0  0  0  0  0  0  0
    5.4641    0.8030    0.0000 H   0  0  0  0  0  0  0  0  0  0  0  0
    6.8671   -1.6270    0.0000 H   0  0  0  0  0  0  0  0  0  0  0  0
    4.0611   -0.0070    0.0000 H   0  0  0  0  0  0  0  0  0  0  0  0
    5.4641   -2.4370    0.0000 H   0  0  0  0  0  0  0  0  0  0  0  0
  1 19  1  0  0  0  0
  2 17  1  0  0  0  0
  3 17  1  0  0  0  0
  4 17  1  0  0  0  0
  5 29  1  0  0  0  0
  6 29  1  0  0  0  0
  7 29  1  0  0  0  0
  8 21  1  0  0  0  0
  8 26  1  0  0  0  0
  9 25  1  0  0  0  0
  9 29  1  0  0  0  0
 10 20  2  0  0  0  0
 11 26  2  0  0  0  0
 12 13  1  0  0  0  0
 12 20  1  0  0  0  0
 12 31  1  0  0  0  0
 13 14  2  0  0  0  0
 13 15  1  0  0  0  0
 14 16  1  0  0  0  0
 14 17  1  0  0  0  0
 15 18  2  0  0  0  0
 15 30  1  0  0  0  0
 16 19  2  0  0  0  0
 16 32  1  0  0  0  0
 18 19  1  0  0  0  0
 18 33  1  0  0  0  0
 20 21  1  0  0  0  0
 21 34  1  0  0  0  0
 21 35  1  0  0  0  0
 22 23  2  0  0  0  0
 22 24  1  0  0  0  0
 22 26  1  0  0  0  0
 23 27  1  0  0  0  0
 23 36  1  0  0  0  0
 24 28  2  0  0  0  0
 24 37  1  0  0  0  0
 25 27  2  0  0  0  0
 25 28  1  0  0  0  0
 27 38  1  0  0  0  0
 28 39  1  0  0  0  0
M  END
> <PUBCHEM_COMPOUND_CID>
45693106

> <PUBCHEM_COMPOUND_CANONICALIZED>
1

> <PUBCHEM_CACTVS_COMPLEXITY>
577

> <PUBCHEM_CACTVS_HBOND_ACCEPTOR>
10

> <PUBCHEM_CACTVS_HBOND_DONOR>
1

> <PUBCHEM_CACTVS_ROTATABLE_BOND>
6

> <PUBCHEM_CACTVS_SUBSKEYS>
AAADccB6OcAEAAAAAAAAAAAAAAAAAAAAAAAwYAAAAAAAAAABQAAAHwIQAAAADA6hmDIwzoLABACIAiXSWAKCCAAlJwAIiAFGbsgOJjLFt5+HMShk1BHY6YeY7CzOIABAIAACAABAAIBAAAQAAAAAAAAAAA==

> <PUBCHEM_IUPAC_OPENEYE_NAME>
[2-[4-chloro-2-(trifluoromethyl)anilino]-2-oxo-ethyl] 4-(trifluoromethoxy)benzoate

> <PUBCHEM_IUPAC_CAS_NAME>
4-(trifluoromethoxy)benzoic acid [2-[4-chloro-2-(trifluoromethyl)anilino]-2-oxoethyl] ester

> <PUBCHEM_IUPAC_NAME>
[2-[4-chloro-2-(trifluoromethyl)anilino]-2-oxoethyl] 4-(trifluoromethoxy)benzoate

> <PUBCHEM_IUPAC_SYSTEMATIC_NAME>
[2-[[4-chloranyl-2-(trifluoromethyl)phenyl]amino]-2-oxidanylidene-ethyl] 4-(trifluoromethyloxy)benzoate

> <PUBCHEM_IUPAC_TRADITIONAL_NAME>
4-(trifluoromethoxy)benzoic acid [2-[4-chloro-2-(trifluoromethyl)anilino]-2-keto-ethyl] ester

> <PUBCHEM_IUPAC_INCHI>
InChI=1S/C17H10ClF6NO4/c18-10-3-6-13(12(7-10)16(19,20)21)25-14(26)8-28-15(27)9-1-4-11(5-2-9)29-17(22,23)24/h1-7H,8H2,(H,25,26)

> <PUBCHEM_IUPAC_INCHIKEY>
FGWMGVZGUGVDAH-UHFFFAOYSA-N

> <PUBCHEM_XLOGP3>
4.7

> <PUBCHEM_EXACT_MASS>
441.020255

> <PUBCHEM_MOLECULAR_FORMULA>
C17H10ClF6NO4

> <PUBCHEM_MOLECULAR_WEIGHT>
441.709019

> <PUBCHEM_OPENEYE_CAN_SMILES>
C1=CC(=CC=C1C(=O)OCC(=O)NC2=C(C=C(C=C2)Cl)C(F)(F)F)OC(F)(F)F

> <PUBCHEM_OPENEYE_ISO_SMILES>
C1=CC(=CC=C1C(=O)OCC(=O)NC2=C(C=C(C=C2)Cl)C(F)(F)F)OC(F)(F)F

> <PUBCHEM_CACTVS_TPSA>
64.6

> <PUBCHEM_MONOISOTOPIC_WEIGHT>
441.020255

> <PUBCHEM_TOTAL_CHARGE>
0

> <PUBCHEM_HEAVY_ATOM_COUNT>
29

> <PUBCHEM_ATOM_DEF_STEREO_COUNT>
0

> <PUBCHEM_ATOM_UDEF_STEREO_COUNT>
0

> <PUBCHEM_BOND_DEF_STEREO_COUNT>
0

> <PUBCHEM_BOND_UDEF_STEREO_COUNT>
0

> <PUBCHEM_ISOTOPIC_ATOM_COUNT>
0

> <PUBCHEM_COMPONENT_COUNT>
1

> <PUBCHEM_CACTVS_TAUTO_COUNT>
2

> <PUBCHEM_COORDINATE_TYPE>
1
5
255

> <PUBCHEM_BONDANNOTATIONS>
13  14  8
13  15  8
14  16  8
15  18  8
16  19  8
18  19  8
22  23  8
22  24  8
23  27  8
24  28  8
25  27  8
25  28  8

$$$$
