30540706
  -OEChem-12041211412D

 51 53  0     0  0  0  0  0  0999 V2000
    5.6103    1.2653    0.0000 O   0  0  0  0  0  0  0  0  0  0  0  0
    9.8349    3.0407    0.0000 N   0  3  0  0  0  0  0  0  0  0  0  0
    7.2566    0.7272    0.0000 N   0  0  0  0  0  0  0  0  0  0  0  0
    4.6783   -3.1957    0.0000 N   0  0  0  0  0  0  0  0  0  0  0  0
   10.0412    2.0622    0.0000 C   0  0  0  0  0  0  0  0  0  0  0  0
   10.5792    3.7086    0.0000 C   0  0  0  0  0  0  0  0  0  0  0  0
   10.9917    1.7516    0.0000 C   0  0  0  0  0  0  0  0  0  0  0  0
   11.5298    3.3979    0.0000 C   0  0  0  0  0  0  0  0  0  0  0  0
    8.8564    2.8345    0.0000 C   0  0  0  0  0  0  0  0  0  0  0  0
   11.7360    2.4194    0.0000 C   0  0  0  0  0  0  0  0  0  0  0  0
    8.5458    1.8840    0.0000 C   0  0  0  0  0  0  0  0  0  0  0  0
    7.5673    1.6778    0.0000 C   0  0  0  0  0  0  0  0  0  0  0  0
    6.2781    0.5210    0.0000 C   0  0  0  0  0  0  0  0  0  0  0  0
    5.9674   -0.4295    0.0000 C   0  0  0  0  0  0  0  0  0  0  0  0
    4.9889   -0.6357    0.0000 C   0  0  0  0  0  0  0  0  0  0  0  0
    4.6783   -1.5862    0.0000 C   0  0  0  0  0  0  0  0  0  0  0  0
    3.7320   -1.8910    0.0000 C   0  0  0  0  0  0  0  0  0  0  0  0
    3.7320   -2.8910    0.0000 C   0  0  0  0  0  0  0  0  0  0  0  0
    5.2619   -2.3910    0.0000 C   0  0  0  0  0  0  0  0  0  0  0  0
    2.8660   -1.3910    0.0000 C   0  0  0  0  0  0  0  0  0  0  0  0
    2.8660   -3.3910    0.0000 C   0  0  0  0  0  0  0  0  0  0  0  0
    2.0000   -1.8910    0.0000 C   0  0  0  0  0  0  0  0  0  0  0  0
    2.0000   -2.8910    0.0000 C   0  0  0  0  0  0  0  0  0  0  0  0
    9.1671    3.7850    0.0000 H   0  0  0  0  0  0  0  0  0  0  0  0
   10.8713    4.2555    0.0000 H   0  0  0  0  0  0  0  0  0  0  0  0
   10.0913    4.0911    0.0000 H   0  0  0  0  0  0  0  0  0  0  0  0
    9.4215    2.0417    0.0000 H   0  0  0  0  0  0  0  0  0  0  0  0
    9.9538    1.4484    0.0000 H   0  0  0  0  0  0  0  0  0  0  0  0
   12.1494    3.4185    0.0000 H   0  0  0  0  0  0  0  0  0  0  0  0
   11.6171    4.0117    0.0000 H   0  0  0  0  0  0  0  0  0  0  0  0
   10.6997    1.2046    0.0000 H   0  0  0  0  0  0  0  0  0  0  0  0
   11.4796    1.3690    0.0000 H   0  0  0  0  0  0  0  0  0  0  0  0
    8.8359    3.4542    0.0000 H   0  0  0  0  0  0  0  0  0  0  0  0
    8.2426    2.9218    0.0000 H   0  0  0  0  0  0  0  0  0  0  0  0
   12.0636    1.8930    0.0000 H   0  0  0  0  0  0  0  0  0  0  0  0
   12.3112    2.6507    0.0000 H   0  0  0  0  0  0  0  0  0  0  0  0
    8.5663    1.2643    0.0000 H   0  0  0  0  0  0  0  0  0  0  0  0
    9.1596    1.7966    0.0000 H   0  0  0  0  0  0  0  0  0  0  0  0
    7.5467    2.2974    0.0000 H   0  0  0  0  0  0  0  0  0  0  0  0
    6.9534    1.7651    0.0000 H   0  0  0  0  0  0  0  0  0  0  0  0
    7.6707    0.2658    0.0000 H   0  0  0  0  0  0  0  0  0  0  0  0
    5.9880   -1.0492    0.0000 H   0  0  0  0  0  0  0  0  0  0  0  0
    6.5812   -0.5168    0.0000 H   0  0  0  0  0  0  0  0  0  0  0  0
    4.9684   -0.0161    0.0000 H   0  0  0  0  0  0  0  0  0  0  0  0
    4.3751   -0.5484    0.0000 H   0  0  0  0  0  0  0  0  0  0  0  0
    5.8819   -2.3910    0.0000 H   0  0  0  0  0  0  0  0  0  0  0  0
    4.8709   -3.7850    0.0000 H   0  0  0  0  0  0  0  0  0  0  0  0
    2.8660   -0.7710    0.0000 H   0  0  0  0  0  0  0  0  0  0  0  0
    2.8660   -4.0110    0.0000 H   0  0  0  0  0  0  0  0  0  0  0  0
    1.4631   -1.5810    0.0000 H   0  0  0  0  0  0  0  0  0  0  0  0
    1.4631   -3.2010    0.0000 H   0  0  0  0  0  0  0  0  0  0  0  0
  1 13  2  0  0  0  0
  2  5  1  0  0  0  0
  2  6  1  0  0  0  0
  2  9  1  0  0  0  0
  2 24  1  0  0  0  0
  3 12  1  0  0  0  0
  3 13  1  0  0  0  0
  3 41  1  0  0  0  0
  4 18  1  0  0  0  0
  4 19  1  0  0  0  0
  4 47  1  0  0  0  0
  5  7  1  0  0  0  0
  5 27  1  0  0  0  0
  5 28  1  0  0  0  0
  6  8  1  0  0  0  0
  6 25  1  0  0  0  0
  6 26  1  0  0  0  0
  7 10  1  0  0  0  0
  7 31  1  0  0  0  0
  7 32  1  0  0  0  0
  8 10  1  0  0  0  0
  8 29  1  0  0  0  0
  8 30  1  0  0  0  0
  9 11  1  0  0  0  0
  9 33  1  0  0  0  0
  9 34  1  0  0  0  0
 10 35  1  0  0  0  0
 10 36  1  0  0  0  0
 11 12  1  0  0  0  0
 11 37  1  0  0  0  0
 11 38  1  0  0  0  0
 12 39  1  0  0  0  0
 12 40  1  0  0  0  0
 13 14  1  0  0  0  0
 14 15  1  0  0  0  0
 14 42  1  0  0  0  0
 14 43  1  0  0  0  0
 15 16  1  0  0  0  0
 15 44  1  0  0  0  0
 15 45  1  0  0  0  0
 16 17  1  0  0  0  0
 16 19  2  0  0  0  0
 17 18  1  0  0  0  0
 17 20  2  0  0  0  0
 18 21  2  0  0  0  0
 19 46  1  0  0  0  0
 20 22  1  0  0  0  0
 20 48  1  0  0  0  0
 21 23  1  0  0  0  0
 21 49  1  0  0  0  0
 22 23  2  0  0  0  0
 22 50  1  0  0  0  0
 23 51  1  0  0  0  0
M  CHG  1   2   1
M  END
> <PUBCHEM_COMPOUND_CID>
30540706

> <PUBCHEM_COMPOUND_CANONICALIZED>
1

> <PUBCHEM_CACTVS_COMPLEXITY>
368

> <PUBCHEM_CACTVS_HBOND_ACCEPTOR>
1

> <PUBCHEM_CACTVS_HBOND_DONOR>
3

> <PUBCHEM_CACTVS_ROTATABLE_BOND>
7

> <PUBCHEM_CACTVS_SUBSKEYS>
AAADceB7IAAAAAAAAAAAAAAAAAAAAWAAAAA8QAAAAAAAAFgB8AAAHgAQAAAADAjBngQ8wPPJkACoAzV3VACCgCAxAiAI2aE4ZJgIIPLA0ZGEIAhglgDIyAcYicCOgAAAAAACAAAAAAAAAAQAAAAAAAAAAA==

> <PUBCHEM_IUPAC_OPENEYE_NAME>
3-(1H-indol-3-yl)-N-(3-piperidin-1-ium-1-ylpropyl)propanamide

> <PUBCHEM_IUPAC_CAS_NAME>
3-(1H-indol-3-yl)-N-[3-(1-piperidin-1-iumyl)propyl]propanamide

> <PUBCHEM_IUPAC_NAME>
3-(1H-indol-3-yl)-N-(3-piperidin-1-ium-1-ylpropyl)propanamide

> <PUBCHEM_IUPAC_SYSTEMATIC_NAME>
3-(1H-indol-3-yl)-N-(3-piperidin-1-ium-1-ylpropyl)propanamide

> <PUBCHEM_IUPAC_TRADITIONAL_NAME>
3-(1H-indol-3-yl)-N-(3-piperidin-1-ium-1-ylpropyl)propionamide

> <PUBCHEM_IUPAC_INCHI>
InChI=1S/C19H27N3O/c23-19(20-11-6-14-22-12-4-1-5-13-22)10-9-16-15-21-18-8-3-2-7-17(16)18/h2-3,7-8,15,21H,1,4-6,9-14H2,(H,20,23)/p+1

> <PUBCHEM_IUPAC_INCHIKEY>
NDJDPENIHOEFRV-UHFFFAOYSA-O

> <PUBCHEM_XLOGP3>
2.7

> <PUBCHEM_EXACT_MASS>
314.223238

> <PUBCHEM_MOLECULAR_FORMULA>
C19H28N3O+

> <PUBCHEM_MOLECULAR_WEIGHT>
314.44512

> <PUBCHEM_OPENEYE_CAN_SMILES>
C1CC[NH+](CC1)CCCNC(=O)CCC2=CNC3=CC=CC=C32

> <PUBCHEM_OPENEYE_ISO_SMILES>
C1CC[NH+](CC1)CCCNC(=O)CCC2=CNC3=CC=CC=C32

> <PUBCHEM_CACTVS_TPSA>
49.3

> <PUBCHEM_MONOISOTOPIC_WEIGHT>
314.223238

> <PUBCHEM_TOTAL_CHARGE>
1

> <PUBCHEM_HEAVY_ATOM_COUNT>
23

> <PUBCHEM_ATOM_DEF_STEREO_COUNT>
0

> <PUBCHEM_ATOM_UDEF_STEREO_COUNT>
0

> <PUBCHEM_BOND_DEF_STEREO_COUNT>
0

> <PUBCHEM_BOND_UDEF_STEREO_COUNT>
0

> <PUBCHEM_ISOTOPIC_ATOM_COUNT>
0

> <PUBCHEM_COMPONENT_COUNT>
1

> <PUBCHEM_CACTVS_TAUTO_COUNT>
2

> <PUBCHEM_COORDINATE_TYPE>
1
5
255

> <PUBCHEM_BONDANNOTATIONS>
16  17  8
16  19  8
17  18  8
17  20  8
18  21  8
20  22  8
21  23  8
22  23  8
4  18  8
4  19  8

$$$$
