24353085
  -OEChem-06121221132D

 41 42  0     0  0  0  0  0  0999 V2000
    4.5981    4.7500    0.0000 F   0  0  0  0  0  0  0  0  0  0  0  0
    5.5981    3.7500    0.0000 F   0  0  0  0  0  0  0  0  0  0  0  0
    3.5981    3.7500    0.0000 F   0  0  0  0  0  0  0  0  0  0  0  0
    2.0000    0.2500    0.0000 F   0  0  0  0  0  0  0  0  0  0  0  0
    3.3660   -0.1160    0.0000 F   0  0  0  0  0  0  0  0  0  0  0  0
    2.3660    1.6160    0.0000 F   0  0  0  0  0  0  0  0  0  0  0  0
    6.3301    0.7500    0.0000 O   0  0  0  0  0  0  0  0  0  0  0  0
    8.0622   -0.2500    0.0000 O   0  0  0  0  0  0  0  0  0  0  0  0
    7.1962   -4.7500    0.0000 O   0  5  0  0  0  0  0  0  0  0  0  0
    6.3301   -3.2500    0.0000 O   0  0  0  0  0  0  0  0  0  0  0  0
    7.1962   -1.7500    0.0000 N   0  0  0  0  0  0  0  0  0  0  0  0
    7.1962   -3.7500    0.0000 N   0  3  0  0  0  0  0  0  0  0  0  0
    8.0622   -2.2500    0.0000 C   0  0  0  0  0  0  0  0  0  0  0  0
    4.5981    2.7500    0.0000 C   0  0  0  0  0  0  0  0  0  0  0  0
    3.7320    1.2500    0.0000 C   0  0  0  0  0  0  0  0  0  0  0  0
    5.4641    1.2500    0.0000 C   0  0  0  0  0  0  0  0  0  0  0  0
    8.9282   -1.7500    0.0000 C   0  0  0  0  0  0  0  0  0  0  0  0
    3.7320    2.2500    0.0000 C   0  0  0  0  0  0  0  0  0  0  0  0
    5.4641    2.2500    0.0000 C   0  0  0  0  0  0  0  0  0  0  0  0
    4.5981    0.7500    0.0000 C   0  0  0  0  0  0  0  0  0  0  0  0
    8.0622   -3.2500    0.0000 C   0  0  0  0  0  0  0  0  0  0  0  0
    6.3301   -0.2500    0.0000 C   0  0  0  0  0  0  0  0  0  0  0  0
    7.1962   -0.7500    0.0000 C   0  0  0  0  0  0  0  0  0  0  0  0
    9.7942   -2.2500    0.0000 C   0  0  0  0  0  0  0  0  0  0  0  0
    4.5981    3.7500    0.0000 C   0  0  0  0  0  0  0  0  0  0  0  0
    2.8660    0.7500    0.0000 C   0  0  0  0  0  0  0  0  0  0  0  0
    8.9282   -3.7500    0.0000 C   0  0  0  0  0  0  0  0  0  0  0  0
    8.9282   -0.7500    0.0000 C   0  0  0  0  0  0  0  0  0  0  0  0
    9.7942   -3.2500    0.0000 C   0  0  0  0  0  0  0  0  0  0  0  0
    3.1951    2.5600    0.0000 H   0  0  0  0  0  0  0  0  0  0  0  0
    6.0010    2.5600    0.0000 H   0  0  0  0  0  0  0  0  0  0  0  0
    4.5981    0.1300    0.0000 H   0  0  0  0  0  0  0  0  0  0  0  0
    6.6592   -2.0600    0.0000 H   0  0  0  0  0  0  0  0  0  0  0  0
    5.7196   -0.1423    0.0000 H   0  0  0  0  0  0  0  0  0  0  0  0
    6.1181   -0.8326    0.0000 H   0  0  0  0  0  0  0  0  0  0  0  0
   10.3312   -1.9400    0.0000 H   0  0  0  0  0  0  0  0  0  0  0  0
    8.9282   -4.3700    0.0000 H   0  0  0  0  0  0  0  0  0  0  0  0
    9.5482   -0.7500    0.0000 H   0  0  0  0  0  0  0  0  0  0  0  0
    8.9282   -0.1300    0.0000 H   0  0  0  0  0  0  0  0  0  0  0  0
    8.3082   -0.7500    0.0000 H   0  0  0  0  0  0  0  0  0  0  0  0
   10.3312   -3.5600    0.0000 H   0  0  0  0  0  0  0  0  0  0  0  0
  1 25  1  0  0  0  0
  2 25  1  0  0  0  0
  3 25  1  0  0  0  0
  4 26  1  0  0  0  0
  5 26  1  0  0  0  0
  6 26  1  0  0  0  0
  7 16  1  0  0  0  0
  7 22  1  0  0  0  0
  8 23  2  0  0  0  0
  9 12  1  0  0  0  0
 10 12  2  0  0  0  0
 11 13  1  0  0  0  0
 11 23  1  0  0  0  0
 11 33  1  0  0  0  0
 12 21  1  0  0  0  0
 13 17  2  0  0  0  0
 13 21  1  0  0  0  0
 14 18  2  0  0  0  0
 14 19  1  0  0  0  0
 14 25  1  0  0  0  0
 15 18  1  0  0  0  0
 15 20  2  0  0  0  0
 15 26  1  0  0  0  0
 16 19  2  0  0  0  0
 16 20  1  0  0  0  0
 17 24  1  0  0  0  0
 17 28  1  0  0  0  0
 18 30  1  0  0  0  0
 19 31  1  0  0  0  0
 20 32  1  0  0  0  0
 21 27  2  0  0  0  0
 22 23  1  0  0  0  0
 22 34  1  0  0  0  0
 22 35  1  0  0  0  0
 24 29  2  0  0  0  0
 24 36  1  0  0  0  0
 27 29  1  0  0  0  0
 27 37  1  0  0  0  0
 28 38  1  0  0  0  0
 28 39  1  0  0  0  0
 28 40  1  0  0  0  0
 29 41  1  0  0  0  0
M  CHG  2   9  -1  12   1
M  END
> <PUBCHEM_COMPOUND_CID>
24353085

> <PUBCHEM_COMPOUND_CANONICALIZED>
1

> <PUBCHEM_CACTVS_COMPLEXITY>
570

> <PUBCHEM_CACTVS_HBOND_ACCEPTOR>
10

> <PUBCHEM_CACTVS_HBOND_DONOR>
1

> <PUBCHEM_CACTVS_ROTATABLE_BOND>
4

> <PUBCHEM_CACTVS_SUBSKEYS>
AAADccB7OcAAAAAAAAAAAAAAAAAAAAAAAAAwYAAAAAAAAAABQAAAHwAUAAAADAyhmBIyxoLQRACJAiVSUwKCCAAhIgAoiABGfIoOZiLEsZ+XOCjk1JHY6AeQwFAOAAADQAACACAAAAaAAAQAQAAAAAAAAA==

> <PUBCHEM_IUPAC_OPENEYE_NAME>
2-[3,5-bis(trifluoromethyl)phenoxy]-N-(2-methyl-6-nitro-phenyl)acetamide

> <PUBCHEM_IUPAC_CAS_NAME>
2-[3,5-bis(trifluoromethyl)phenoxy]-N-(2-methyl-6-nitrophenyl)acetamide

> <PUBCHEM_IUPAC_NAME>
2-[3,5-bis(trifluoromethyl)phenoxy]-N-(2-methyl-6-nitrophenyl)acetamide

> <PUBCHEM_IUPAC_SYSTEMATIC_NAME>
2-[3,5-bis(trifluoromethyl)phenoxy]-N-(2-methyl-6-nitro-phenyl)ethanamide

> <PUBCHEM_IUPAC_TRADITIONAL_NAME>
2-[3,5-bis(trifluoromethyl)phenoxy]-N-(2-methyl-6-nitro-phenyl)acetamide

> <PUBCHEM_IUPAC_INCHI>
InChI=1S/C17H12F6N2O4/c1-9-3-2-4-13(25(27)28)15(9)24-14(26)8-29-12-6-10(16(18,19)20)5-11(7-12)17(21,22)23/h2-7H,8H2,1H3,(H,24,26)

> <PUBCHEM_IUPAC_INCHIKEY>
ANNIKHNJRXBGPR-UHFFFAOYSA-N

> <PUBCHEM_XLOGP3>
4.1

> <PUBCHEM_EXACT_MASS>
422.070126

> <PUBCHEM_MOLECULAR_FORMULA>
C17H12F6N2O4

> <PUBCHEM_MOLECULAR_WEIGHT>
422.278599

> <PUBCHEM_OPENEYE_CAN_SMILES>
CC1=C(C(=CC=C1)[N+](=O)[O-])NC(=O)COC2=CC(=CC(=C2)C(F)(F)F)C(F)(F)F

> <PUBCHEM_OPENEYE_ISO_SMILES>
CC1=C(C(=CC=C1)[N+](=O)[O-])NC(=O)COC2=CC(=CC(=C2)C(F)(F)F)C(F)(F)F

> <PUBCHEM_CACTVS_TPSA>
84.2

> <PUBCHEM_MONOISOTOPIC_WEIGHT>
422.070126

> <PUBCHEM_TOTAL_CHARGE>
0

> <PUBCHEM_HEAVY_ATOM_COUNT>
29

> <PUBCHEM_ATOM_DEF_STEREO_COUNT>
0

> <PUBCHEM_ATOM_UDEF_STEREO_COUNT>
0

> <PUBCHEM_BOND_DEF_STEREO_COUNT>
0

> <PUBCHEM_BOND_UDEF_STEREO_COUNT>
0

> <PUBCHEM_ISOTOPIC_ATOM_COUNT>
0

> <PUBCHEM_COMPONENT_COUNT>
1

> <PUBCHEM_CACTVS_TAUTO_COUNT>
3

> <PUBCHEM_COORDINATE_TYPE>
1
5
255

> <PUBCHEM_BONDANNOTATIONS>
13  17  8
13  21  8
14  18  8
14  19  8
15  18  8
15  20  8
16  19  8
16  20  8
17  24  8
21  27  8
24  29  8
27  29  8

$$$$
