32148231
  -OEChem-12041211442D

 42 42  0     1  0  0  0  0  0999 V2000
    4.5981   -0.7500    0.0000 O   0  0  0  0  0  0  0  0  0  0  0  0
    5.4641    2.7500    0.0000 N   0  3  0  0  0  0  0  0  0  0  0  0
    3.7320    0.7500    0.0000 N   0  0  0  0  0  0  0  0  0  0  0  0
    2.8660   -0.7500    0.0000 N   0  0  0  0  0  0  0  0  0  0  0  0
    4.5981    2.2500    0.0000 C   0  0  1  0  0  0  0  0  0  0  0  0
    3.7320    2.7500    0.0000 C   0  0  0  0  0  0  0  0  0  0  0  0
    4.5981    1.2500    0.0000 C   0  0  0  0  0  0  0  0  0  0  0  0
    6.3301    3.2500    0.0000 C   0  0  0  0  0  0  0  0  0  0  0  0
    4.9641    3.6160    0.0000 C   0  0  0  0  0  0  0  0  0  0  0  0
    3.7320    3.7500    0.0000 C   0  0  0  0  0  0  0  0  0  0  0  0
    2.8660    2.2500    0.0000 C   0  0  0  0  0  0  0  0  0  0  0  0
    3.7320   -0.2500    0.0000 C   0  0  0  0  0  0  0  0  0  0  0  0
    2.8660   -1.7500    0.0000 C   0  0  0  0  0  0  0  0  0  0  0  0
    3.7320   -2.2500    0.0000 C   0  0  0  0  0  0  0  0  0  0  0  0
    2.0000   -2.2500    0.0000 C   0  0  0  0  0  0  0  0  0  0  0  0
    3.7320   -3.2500    0.0000 C   0  0  0  0  0  0  0  0  0  0  0  0
    2.0000   -3.2500    0.0000 C   0  0  0  0  0  0  0  0  0  0  0  0
    2.8660   -3.7500    0.0000 C   0  0  0  0  0  0  0  0  0  0  0  0
    4.5981    2.8700    0.0000 H   0  0  0  0  0  0  0  0  0  0  0  0
    5.7741    2.2131    0.0000 H   0  0  0  0  0  0  0  0  0  0  0  0
    3.7320    2.1300    0.0000 H   0  0  0  0  0  0  0  0  0  0  0  0
    4.8101    0.6674    0.0000 H   0  0  0  0  0  0  0  0  0  0  0  0
    5.2087    1.3577    0.0000 H   0  0  0  0  0  0  0  0  0  0  0  0
    6.6401    2.7131    0.0000 H   0  0  0  0  0  0  0  0  0  0  0  0
    6.8671    3.5600    0.0000 H   0  0  0  0  0  0  0  0  0  0  0  0
    6.0201    3.7869    0.0000 H   0  0  0  0  0  0  0  0  0  0  0  0
    5.5010    3.9260    0.0000 H   0  0  0  0  0  0  0  0  0  0  0  0
    4.6541    4.1530    0.0000 H   0  0  0  0  0  0  0  0  0  0  0  0
    4.4272    3.3060    0.0000 H   0  0  0  0  0  0  0  0  0  0  0  0
    2.5560    2.7869    0.0000 H   0  0  0  0  0  0  0  0  0  0  0  0
    4.3520    3.7500    0.0000 H   0  0  0  0  0  0  0  0  0  0  0  0
    3.7320    4.3700    0.0000 H   0  0  0  0  0  0  0  0  0  0  0  0
    3.1120    3.7500    0.0000 H   0  0  0  0  0  0  0  0  0  0  0  0
    2.3291    1.9400    0.0000 H   0  0  0  0  0  0  0  0  0  0  0  0
    3.1760    1.7131    0.0000 H   0  0  0  0  0  0  0  0  0  0  0  0
    3.1951    1.0600    0.0000 H   0  0  0  0  0  0  0  0  0  0  0  0
    2.3291   -0.4400    0.0000 H   0  0  0  0  0  0  0  0  0  0  0  0
    4.2690   -1.9400    0.0000 H   0  0  0  0  0  0  0  0  0  0  0  0
    1.4631   -1.9400    0.0000 H   0  0  0  0  0  0  0  0  0  0  0  0
    4.2690   -3.5600    0.0000 H   0  0  0  0  0  0  0  0  0  0  0  0
    1.4631   -3.5600    0.0000 H   0  0  0  0  0  0  0  0  0  0  0  0
    2.8660   -4.3700    0.0000 H   0  0  0  0  0  0  0  0  0  0  0  0
  1 12  2  0  0  0  0
  5  2  1  6  0  0  0
  2  8  1  0  0  0  0
  2  9  1  0  0  0  0
  2 20  1  0  0  0  0
  3  7  1  0  0  0  0
  3 12  1  0  0  0  0
  3 36  1  0  0  0  0
  4 12  1  0  0  0  0
  4 13  1  0  0  0  0
  4 37  1  0  0  0  0
  5  6  1  0  0  0  0
  5  7  1  0  0  0  0
  5 19  1  0  0  0  0
  6 10  1  0  0  0  0
  6 11  1  0  0  0  0
  6 21  1  0  0  0  0
  7 22  1  0  0  0  0
  7 23  1  0  0  0  0
  8 24  1  0  0  0  0
  8 25  1  0  0  0  0
  8 26  1  0  0  0  0
  9 27  1  0  0  0  0
  9 28  1  0  0  0  0
  9 29  1  0  0  0  0
 10 31  1  0  0  0  0
 10 32  1  0  0  0  0
 10 33  1  0  0  0  0
 11 30  1  0  0  0  0
 11 34  1  0  0  0  0
 11 35  1  0  0  0  0
 13 14  2  0  0  0  0
 13 15  1  0  0  0  0
 14 16  1  0  0  0  0
 14 38  1  0  0  0  0
 15 17  2  0  0  0  0
 15 39  1  0  0  0  0
 16 18  2  0  0  0  0
 16 40  1  0  0  0  0
 17 18  1  0  0  0  0
 17 41  1  0  0  0  0
 18 42  1  0  0  0  0
M  CHG  1   2   1
M  END
> <PUBCHEM_COMPOUND_CID>
32148231

> <PUBCHEM_COMPOUND_CANONICALIZED>
1

> <PUBCHEM_CACTVS_COMPLEXITY>
247

> <PUBCHEM_CACTVS_HBOND_ACCEPTOR>
1

> <PUBCHEM_CACTVS_HBOND_DONOR>
3

> <PUBCHEM_CACTVS_ROTATABLE_BOND>
5

> <PUBCHEM_CACTVS_SUBSKEYS>
AAADceBzIAAAAAAAAAAAAAAAAAAAAAAAAAAwAAAAAAAAAAABAAAAHgAQAAAADSjBEAQzwIPAAACIACRCUACCAAAhAgAIiIAIZIiIYCLAkZGUIAholgJIyCcQAAAIAAAAAAAAAAAAAAAAAAAAAAAAAAAAAA==

> <PUBCHEM_IUPAC_OPENEYE_NAME>
dimethyl-[(1S)-2-methyl-1-[(phenylcarbamoylamino)methyl]propyl]ammonium

> <PUBCHEM_IUPAC_CAS_NAME>
[(2S)-1-[[anilino(oxo)methyl]amino]-3-methylbutan-2-yl]-dimethylammonium

> <PUBCHEM_IUPAC_NAME>
dimethyl-[(2S)-3-methyl-1-(phenylcarbamoylamino)butan-2-yl]azanium

> <PUBCHEM_IUPAC_SYSTEMATIC_NAME>
dimethyl-[(2S)-3-methyl-1-(phenylcarbamoylamino)butan-2-yl]azanium

> <PUBCHEM_IUPAC_TRADITIONAL_NAME>
dimethyl-[(1S)-2-methyl-1-[(phenylcarbamoylamino)methyl]propyl]ammonium

> <PUBCHEM_IUPAC_INCHI>
InChI=1S/C14H23N3O/c1-11(2)13(17(3)4)10-15-14(18)16-12-8-6-5-7-9-12/h5-9,11,13H,10H2,1-4H3,(H2,15,16,18)/p+1/t13-/m1/s1

> <PUBCHEM_IUPAC_INCHIKEY>
MWKXLBOQIGWIIJ-CYBMUJFWSA-O

> <PUBCHEM_XLOGP3>
2.7

> <PUBCHEM_EXACT_MASS>
250.191937

> <PUBCHEM_MOLECULAR_FORMULA>
C14H24N3O+

> <PUBCHEM_MOLECULAR_WEIGHT>
250.35986

> <PUBCHEM_OPENEYE_CAN_SMILES>
CC(C)C(CNC(=O)NC1=CC=CC=C1)[NH+](C)C

> <PUBCHEM_OPENEYE_ISO_SMILES>
CC(C)[C@@H](CNC(=O)NC1=CC=CC=C1)[NH+](C)C

> <PUBCHEM_CACTVS_TPSA>
45.6

> <PUBCHEM_MONOISOTOPIC_WEIGHT>
250.191937

> <PUBCHEM_TOTAL_CHARGE>
1

> <PUBCHEM_HEAVY_ATOM_COUNT>
18

> <PUBCHEM_ATOM_DEF_STEREO_COUNT>
1

> <PUBCHEM_ATOM_UDEF_STEREO_COUNT>
0

> <PUBCHEM_BOND_DEF_STEREO_COUNT>
0

> <PUBCHEM_BOND_UDEF_STEREO_COUNT>
0

> <PUBCHEM_ISOTOPIC_ATOM_COUNT>
0

> <PUBCHEM_COMPONENT_COUNT>
1

> <PUBCHEM_CACTVS_TAUTO_COUNT>
3

> <PUBCHEM_COORDINATE_TYPE>
1
5
255

> <PUBCHEM_BONDANNOTATIONS>
13  14  8
13  15  8
14  16  8
15  17  8
16  18  8
17  18  8
5  2  6

$$$$
32148234
  -OEChem-12041211442D

 42 42  0     1  0  0  0  0  0999 V2000
    4.5981   -0.7500    0.0000 O   0  0  0  0  0  0  0  0  0  0  0  0
    5.4641    2.7500    0.0000 N   0  3  0  0  0  0  0  0  0  0  0  0
    3.7320    0.7500    0.0000 N   0  0  0  0  0  0  0  0  0  0  0  0
    2.8660   -0.7500    0.0000 N   0  0  0  0  0  0  0  0  0  0  0  0
    4.5981    2.2500    0.0000 C   0  0  2  0  0  0  0  0  0  0  0  0
    3.7320    2.7500    0.0000 C   0  0  0  0  0  0  0  0  0  0  0  0
    4.5981    1.2500    0.0000 C   0  0  0  0  0  0  0  0  0  0  0  0
    6.3301    3.2500    0.0000 C   0  0  0  0  0  0  0  0  0  0  0  0
    4.9641    3.6160    0.0000 C   0  0  0  0  0  0  0  0  0  0  0  0
    3.7320    3.7500    0.0000 C   0  0  0  0  0  0  0  0  0  0  0  0
    2.8660    2.2500    0.0000 C   0  0  0  0  0  0  0  0  0  0  0  0
    3.7320   -0.2500    0.0000 C   0  0  0  0  0  0  0  0  0  0  0  0
    2.8660   -1.7500    0.0000 C   0  0  0  0  0  0  0  0  0  0  0  0
    3.7320   -2.2500    0.0000 C   0  0  0  0  0  0  0  0  0  0  0  0
    2.0000   -2.2500    0.0000 C   0  0  0  0  0  0  0  0  0  0  0  0
    3.7320   -3.2500    0.0000 C   0  0  0  0  0  0  0  0  0  0  0  0
    2.0000   -3.2500    0.0000 C   0  0  0  0  0  0  0  0  0  0  0  0
    2.8660   -3.7500    0.0000 C   0  0  0  0  0  0  0  0  0  0  0  0
    4.5981    2.8700    0.0000 H   0  0  0  0  0  0  0  0  0  0  0  0
    5.7741    2.2131    0.0000 H   0  0  0  0  0  0  0  0  0  0  0  0
    3.7320    2.1300    0.0000 H   0  0  0  0  0  0  0  0  0  0  0  0
    4.8101    0.6674    0.0000 H   0  0  0  0  0  0  0  0  0  0  0  0
    5.2087    1.3577    0.0000 H   0  0  0  0  0  0  0  0  0  0  0  0
    6.6401    2.7131    0.0000 H   0  0  0  0  0  0  0  0  0  0  0  0
    6.8671    3.5600    0.0000 H   0  0  0  0  0  0  0  0  0  0  0  0
    6.0201    3.7869    0.0000 H   0  0  0  0  0  0  0  0  0  0  0  0
    5.5010    3.9260    0.0000 H   0  0  0  0  0  0  0  0  0  0  0  0
    4.6541    4.1530    0.0000 H   0  0  0  0  0  0  0  0  0  0  0  0
    4.4272    3.3060    0.0000 H   0  0  0  0  0  0  0  0  0  0  0  0
    2.5560    2.7869    0.0000 H   0  0  0  0  0  0  0  0  0  0  0  0
    4.3520    3.7500    0.0000 H   0  0  0  0  0  0  0  0  0  0  0  0
    3.7320    4.3700    0.0000 H   0  0  0  0  0  0  0  0  0  0  0  0
    3.1120    3.7500    0.0000 H   0  0  0  0  0  0  0  0  0  0  0  0
    2.3291    1.9400    0.0000 H   0  0  0  0  0  0  0  0  0  0  0  0
    3.1760    1.7131    0.0000 H   0  0  0  0  0  0  0  0  0  0  0  0
    3.1951    1.0600    0.0000 H   0  0  0  0  0  0  0  0  0  0  0  0
    2.3291   -0.4400    0.0000 H   0  0  0  0  0  0  0  0  0  0  0  0
    4.2690   -1.9400    0.0000 H   0  0  0  0  0  0  0  0  0  0  0  0
    1.4631   -1.9400    0.0000 H   0  0  0  0  0  0  0  0  0  0  0  0
    4.2690   -3.5600    0.0000 H   0  0  0  0  0  0  0  0  0  0  0  0
    1.4631   -3.5600    0.0000 H   0  0  0  0  0  0  0  0  0  0  0  0
    2.8660   -4.3700    0.0000 H   0  0  0  0  0  0  0  0  0  0  0  0
  1 12  2  0  0  0  0
  5  2  1  1  0  0  0
  2  8  1  0  0  0  0
  2  9  1  0  0  0  0
  2 20  1  0  0  0  0
  3  7  1  0  0  0  0
  3 12  1  0  0  0  0
  3 36  1  0  0  0  0
  4 12  1  0  0  0  0
  4 13  1  0  0  0  0
  4 37  1  0  0  0  0
  5  6  1  0  0  0  0
  5  7  1  0  0  0  0
  5 19  1  0  0  0  0
  6 10  1  0  0  0  0
  6 11  1  0  0  0  0
  6 21  1  0  0  0  0
  7 22  1  0  0  0  0
  7 23  1  0  0  0  0
  8 24  1  0  0  0  0
  8 25  1  0  0  0  0
  8 26  1  0  0  0  0
  9 27  1  0  0  0  0
  9 28  1  0  0  0  0
  9 29  1  0  0  0  0
 10 31  1  0  0  0  0
 10 32  1  0  0  0  0
 10 33  1  0  0  0  0
 11 30  1  0  0  0  0
 11 34  1  0  0  0  0
 11 35  1  0  0  0  0
 13 14  2  0  0  0  0
 13 15  1  0  0  0  0
 14 16  1  0  0  0  0
 14 38  1  0  0  0  0
 15 17  2  0  0  0  0
 15 39  1  0  0  0  0
 16 18  2  0  0  0  0
 16 40  1  0  0  0  0
 17 18  1  0  0  0  0
 17 41  1  0  0  0  0
 18 42  1  0  0  0  0
M  CHG  1   2   1
M  END
> <PUBCHEM_COMPOUND_CID>
32148234

> <PUBCHEM_COMPOUND_CANONICALIZED>
1

> <PUBCHEM_CACTVS_COMPLEXITY>
247

> <PUBCHEM_CACTVS_HBOND_ACCEPTOR>
1

> <PUBCHEM_CACTVS_HBOND_DONOR>
3

> <PUBCHEM_CACTVS_ROTATABLE_BOND>
5

> <PUBCHEM_CACTVS_SUBSKEYS>
AAADceBzIAAAAAAAAAAAAAAAAAAAAAAAAAAwAAAAAAAAAAABAAAAHgAQAAAADSjBEAQzwIPAAACIACRCUACCAAAhAgAIiIAIZIiIYCLAkZGUIAholgJIyCcQAAAIAAAAAAAAAAAAAAAAAAAAAAAAAAAAAA==

> <PUBCHEM_IUPAC_OPENEYE_NAME>
dimethyl-[(1R)-2-methyl-1-[(phenylcarbamoylamino)methyl]propyl]ammonium

> <PUBCHEM_IUPAC_CAS_NAME>
[(2R)-1-[[anilino(oxo)methyl]amino]-3-methylbutan-2-yl]-dimethylammonium

> <PUBCHEM_IUPAC_NAME>
dimethyl-[(2R)-3-methyl-1-(phenylcarbamoylamino)butan-2-yl]azanium

> <PUBCHEM_IUPAC_SYSTEMATIC_NAME>
dimethyl-[(2R)-3-methyl-1-(phenylcarbamoylamino)butan-2-yl]azanium

> <PUBCHEM_IUPAC_TRADITIONAL_NAME>
dimethyl-[(1R)-2-methyl-1-[(phenylcarbamoylamino)methyl]propyl]ammonium

> <PUBCHEM_IUPAC_INCHI>
InChI=1S/C14H23N3O/c1-11(2)13(17(3)4)10-15-14(18)16-12-8-6-5-7-9-12/h5-9,11,13H,10H2,1-4H3,(H2,15,16,18)/p+1/t13-/m0/s1

> <PUBCHEM_IUPAC_INCHIKEY>
MWKXLBOQIGWIIJ-ZDUSSCGKSA-O

> <PUBCHEM_XLOGP3>
2.7

> <PUBCHEM_EXACT_MASS>
250.191937

> <PUBCHEM_MOLECULAR_FORMULA>
C14H24N3O+

> <PUBCHEM_MOLECULAR_WEIGHT>
250.35986

> <PUBCHEM_OPENEYE_CAN_SMILES>
CC(C)C(CNC(=O)NC1=CC=CC=C1)[NH+](C)C

> <PUBCHEM_OPENEYE_ISO_SMILES>
CC(C)[C@H](CNC(=O)NC1=CC=CC=C1)[NH+](C)C

> <PUBCHEM_CACTVS_TPSA>
45.6

> <PUBCHEM_MONOISOTOPIC_WEIGHT>
250.191937

> <PUBCHEM_TOTAL_CHARGE>
1

> <PUBCHEM_HEAVY_ATOM_COUNT>
18

> <PUBCHEM_ATOM_DEF_STEREO_COUNT>
1

> <PUBCHEM_ATOM_UDEF_STEREO_COUNT>
0

> <PUBCHEM_BOND_DEF_STEREO_COUNT>
0

> <PUBCHEM_BOND_UDEF_STEREO_COUNT>
0

> <PUBCHEM_ISOTOPIC_ATOM_COUNT>
0

> <PUBCHEM_COMPONENT_COUNT>
1

> <PUBCHEM_CACTVS_TAUTO_COUNT>
3

> <PUBCHEM_COORDINATE_TYPE>
1
5
255

> <PUBCHEM_BONDANNOTATIONS>
13  14  8
13  15  8
14  16  8
15  17  8
16  18  8
17  18  8
5  2  5

$$$$
