34242851
  -OEChem-03221309332D

 42 43  0     0  0  0  0  0  0999 V2000
    3.5000    0.7673    0.0000 N   0  3  0  0  0  0  0  0  0  0  0  0
    3.5000   -0.2327    0.0000 C   0  0  0  0  0  0  0  0  0  0  0  0
    3.5000    1.7673    0.0000 C   0  0  0  0  0  0  0  0  0  0  0  0
    2.5000    0.7673    0.0000 C   0  0  0  0  0  0  0  0  0  0  0  0
    4.3660   -0.7327    0.0000 C   0  0  0  0  0  0  0  0  0  0  0  0
    4.3660   -1.7327    0.0000 C   0  0  0  0  0  0  0  0  0  0  0  0
    5.2320   -0.2327    0.0000 C   0  0  0  0  0  0  0  0  0  0  0  0
    2.6340    2.2673    0.0000 C   0  0  0  0  0  0  0  0  0  0  0  0
    2.0000   -0.0987    0.0000 C   0  0  0  0  0  0  0  0  0  0  0  0
    6.0981   -0.7327    0.0000 C   0  0  0  0  0  0  0  0  0  0  0  0
    6.0981   -1.7327    0.0000 C   0  0  0  0  0  0  0  0  0  0  0  0
    5.2320   -2.2327    0.0000 C   0  0  0  0  0  0  0  0  0  0  0  0
    3.5000   -2.2327    0.0000 C   0  0  0  0  0  0  0  0  0  0  0  0
    6.9920   -2.2673    0.0000 C   0  0  0  0  0  0  0  0  0  0  0  0
    6.9920   -0.1980    0.0000 C   0  0  0  0  0  0  0  0  0  0  0  0
    7.8981   -1.7535    0.0000 C   0  0  0  0  0  0  0  0  0  0  0  0
    7.8981   -0.7119    0.0000 C   0  0  0  0  0  0  0  0  0  0  0  0
    8.7622   -2.2568    0.0000 C   0  0  0  0  0  0  0  0  0  0  0  0
    4.1200    0.7673    0.0000 H   0  0  0  0  0  0  0  0  0  0  0  0
    2.8894   -0.1250    0.0000 H   0  0  0  0  0  0  0  0  0  0  0  0
    3.2880   -0.8153    0.0000 H   0  0  0  0  0  0  0  0  0  0  0  0
    4.1106    1.6597    0.0000 H   0  0  0  0  0  0  0  0  0  0  0  0
    3.7120    2.3499    0.0000 H   0  0  0  0  0  0  0  0  0  0  0  0
    2.6077    1.3779    0.0000 H   0  0  0  0  0  0  0  0  0  0  0  0
    1.9174    0.9794    0.0000 H   0  0  0  0  0  0  0  0  0  0  0  0
    5.2320    0.3873    0.0000 H   0  0  0  0  0  0  0  0  0  0  0  0
    1.4631    0.2113    0.0000 H   0  0  0  0  0  0  0  0  0  0  0  0
    2.9440    2.8043    0.0000 H   0  0  0  0  0  0  0  0  0  0  0  0
    2.0970    2.5773    0.0000 H   0  0  0  0  0  0  0  0  0  0  0  0
    2.3240    1.7304    0.0000 H   0  0  0  0  0  0  0  0  0  0  0  0
    1.6900   -0.6356    0.0000 H   0  0  0  0  0  0  0  0  0  0  0  0
    2.5369   -0.4087    0.0000 H   0  0  0  0  0  0  0  0  0  0  0  0
    5.2320   -2.8527    0.0000 H   0  0  0  0  0  0  0  0  0  0  0  0
    3.1900   -1.6957    0.0000 H   0  0  0  0  0  0  0  0  0  0  0  0
    2.9631   -2.5427    0.0000 H   0  0  0  0  0  0  0  0  0  0  0  0
    3.8100   -2.7696    0.0000 H   0  0  0  0  0  0  0  0  0  0  0  0
    6.9848   -2.8873    0.0000 H   0  0  0  0  0  0  0  0  0  0  0  0
    6.9848    0.4220    0.0000 H   0  0  0  0  0  0  0  0  0  0  0  0
    8.4338   -0.3998    0.0000 H   0  0  0  0  0  0  0  0  0  0  0  0
    8.4501   -2.7926    0.0000 H   0  0  0  0  0  0  0  0  0  0  0  0
    9.2979   -2.5689    0.0000 H   0  0  0  0  0  0  0  0  0  0  0  0
    9.0742   -1.7211    0.0000 H   0  0  0  0  0  0  0  0  0  0  0  0
  1  2  1  0  0  0  0
  1  3  1  0  0  0  0
  1  4  1  0  0  0  0
  1 19  1  0  0  0  0
  2  5  1  0  0  0  0
  2 20  1  0  0  0  0
  2 21  1  0  0  0  0
  3  8  1  0  0  0  0
  3 22  1  0  0  0  0
  3 23  1  0  0  0  0
  4  9  1  0  0  0  0
  4 24  1  0  0  0  0
  4 25  1  0  0  0  0
  5  6  1  0  0  0  0
  5  7  2  0  0  0  0
  6 12  2  0  0  0  0
  6 13  1  0  0  0  0
  7 10  1  0  0  0  0
  7 26  1  0  0  0  0
  8 28  1  0  0  0  0
  8 29  1  0  0  0  0
  8 30  1  0  0  0  0
  9 27  1  0  0  0  0
  9 31  1  0  0  0  0
  9 32  1  0  0  0  0
 10 11  2  0  0  0  0
 10 15  1  0  0  0  0
 11 12  1  0  0  0  0
 11 14  1  0  0  0  0
 12 33  1  0  0  0  0
 13 34  1  0  0  0  0
 13 35  1  0  0  0  0
 13 36  1  0  0  0  0
 14 16  2  0  0  0  0
 14 37  1  0  0  0  0
 15 17  2  0  0  0  0
 15 38  1  0  0  0  0
 16 17  1  0  0  0  0
 16 18  1  0  0  0  0
 17 39  1  0  0  0  0
 18 40  1  0  0  0  0
 18 41  1  0  0  0  0
 18 42  1  0  0  0  0
M  CHG  1   1   1
M  END
> <PUBCHEM_COMPOUND_CID>
34242851

> <PUBCHEM_COMPOUND_CANONICALIZED>
1

> <PUBCHEM_CACTVS_COMPLEXITY>
246

> <PUBCHEM_CACTVS_HBOND_ACCEPTOR>
0

> <PUBCHEM_CACTVS_HBOND_DONOR>
1

> <PUBCHEM_CACTVS_ROTATABLE_BOND>
4

> <PUBCHEM_CACTVS_SUBSKEYS>
AAADceB6AAAAAAAAAAAAAAAAAAAAAAAAAAAwYAAAAAAAAADBUAAAHAAQAAAADADBGAQyAMPAAACAAiBCAACCAAAgAAAIiIAIBIgIICKAkRGEIAhgkACIiAcQgMAOwAACAAAQAACAAAQAACAAAAAAAAAAAA==

> <PUBCHEM_IUPAC_OPENEYE_NAME>
(3,6-dimethyl-2-naphthyl)methyl-diethyl-ammonium

> <PUBCHEM_IUPAC_CAS_NAME>
(3,6-dimethyl-2-naphthalenyl)methyl-diethylammonium

> <PUBCHEM_IUPAC_NAME>
(3,6-dimethylnaphthalen-2-yl)methyl-diethylazanium

> <PUBCHEM_IUPAC_SYSTEMATIC_NAME>
(3,6-dimethylnaphthalen-2-yl)methyl-diethyl-azanium

> <PUBCHEM_IUPAC_TRADITIONAL_NAME>
(3,6-dimethyl-2-naphthyl)methyl-diethyl-ammonium

> <PUBCHEM_IUPAC_INCHI>
InChI=1S/C17H23N/c1-5-18(6-2)12-17-11-15-8-7-13(3)9-16(15)10-14(17)4/h7-11H,5-6,12H2,1-4H3/p+1

> <PUBCHEM_IUPAC_INCHIKEY>
AOWDZJQUAQYEFI-UHFFFAOYSA-O

> <PUBCHEM_XLOGP3>
4.9

> <PUBCHEM_EXACT_MASS>
242.190875

> <PUBCHEM_MOLECULAR_FORMULA>
C17H24N+

> <PUBCHEM_MOLECULAR_WEIGHT>
242.37916

> <PUBCHEM_OPENEYE_CAN_SMILES>
CC[NH+](CC)CC1=C(C=C2C=C(C=CC2=C1)C)C

> <PUBCHEM_OPENEYE_ISO_SMILES>
CC[NH+](CC)CC1=C(C=C2C=C(C=CC2=C1)C)C

> <PUBCHEM_CACTVS_TPSA>
4.4

> <PUBCHEM_MONOISOTOPIC_WEIGHT>
242.190875

> <PUBCHEM_TOTAL_CHARGE>
1

> <PUBCHEM_HEAVY_ATOM_COUNT>
18

> <PUBCHEM_ATOM_DEF_STEREO_COUNT>
0

> <PUBCHEM_ATOM_UDEF_STEREO_COUNT>
0

> <PUBCHEM_BOND_DEF_STEREO_COUNT>
0

> <PUBCHEM_BOND_UDEF_STEREO_COUNT>
0

> <PUBCHEM_ISOTOPIC_ATOM_COUNT>
0

> <PUBCHEM_COMPONENT_COUNT>
1

> <PUBCHEM_CACTVS_TAUTO_COUNT>
1

> <PUBCHEM_COORDINATE_TYPE>
1
5
255

> <PUBCHEM_BONDANNOTATIONS>
10  11  8
10  15  8
11  12  8
11  14  8
14  16  8
15  17  8
16  17  8
5  6  8
5  7  8
6  12  8
7  10  8

$$$$
34242852
  -OEChem-03221309332D

 41 42  0     0  0  0  0  0  0999 V2000
    2.8660    0.7673    0.0000 N   0  0  0  0  0  0  0  0  0  0  0  0
    2.8660   -0.2327    0.0000 C   0  0  0  0  0  0  0  0  0  0  0  0
    3.7320   -0.7327    0.0000 C   0  0  0  0  0  0  0  0  0  0  0  0
    3.7320   -1.7327    0.0000 C   0  0  0  0  0  0  0  0  0  0  0  0
    5.4641   -0.7327    0.0000 C   0  0  0  0  0  0  0  0  0  0  0  0
    2.0000    1.2673    0.0000 C   0  0  0  0  0  0  0  0  0  0  0  0
    3.7320    1.2673    0.0000 C   0  0  0  0  0  0  0  0  0  0  0  0
    4.5981   -0.2327    0.0000 C   0  0  0  0  0  0  0  0  0  0  0  0
    5.4641   -1.7327    0.0000 C   0  0  0  0  0  0  0  0  0  0  0  0
    4.5981   -2.2327    0.0000 C   0  0  0  0  0  0  0  0  0  0  0  0
    6.3580   -2.2673    0.0000 C   0  0  0  0  0  0  0  0  0  0  0  0
    2.8660   -2.2327    0.0000 C   0  0  0  0  0  0  0  0  0  0  0  0
    6.3580   -0.1980    0.0000 C   0  0  0  0  0  0  0  0  0  0  0  0
    2.0000    2.2673    0.0000 C   0  0  0  0  0  0  0  0  0  0  0  0
    3.7320    2.2673    0.0000 C   0  0  0  0  0  0  0  0  0  0  0  0
    7.2641   -1.7535    0.0000 C   0  0  0  0  0  0  0  0  0  0  0  0
    7.2641   -0.7119    0.0000 C   0  0  0  0  0  0  0  0  0  0  0  0
    8.1282   -2.2568    0.0000 C   0  0  0  0  0  0  0  0  0  0  0  0
    2.2554   -0.1250    0.0000 H   0  0  0  0  0  0  0  0  0  0  0  0
    2.6540   -0.8153    0.0000 H   0  0  0  0  0  0  0  0  0  0  0  0
    3.9441    0.6847    0.0000 H   0  0  0  0  0  0  0  0  0  0  0  0
    4.3426    1.3750    0.0000 H   0  0  0  0  0  0  0  0  0  0  0  0
    1.3894    1.3750    0.0000 H   0  0  0  0  0  0  0  0  0  0  0  0
    1.7880    0.6847    0.0000 H   0  0  0  0  0  0  0  0  0  0  0  0
    4.5981    0.3873    0.0000 H   0  0  0  0  0  0  0  0  0  0  0  0
    4.5981   -2.8527    0.0000 H   0  0  0  0  0  0  0  0  0  0  0  0
    6.3509   -2.8873    0.0000 H   0  0  0  0  0  0  0  0  0  0  0  0
    2.5560   -1.6957    0.0000 H   0  0  0  0  0  0  0  0  0  0  0  0
    2.3291   -2.5427    0.0000 H   0  0  0  0  0  0  0  0  0  0  0  0
    3.1760   -2.7696    0.0000 H   0  0  0  0  0  0  0  0  0  0  0  0
    6.3509    0.4220    0.0000 H   0  0  0  0  0  0  0  0  0  0  0  0
    2.6200    2.2673    0.0000 H   0  0  0  0  0  0  0  0  0  0  0  0
    2.0000    2.8873    0.0000 H   0  0  0  0  0  0  0  0  0  0  0  0
    1.3800    2.2673    0.0000 H   0  0  0  0  0  0  0  0  0  0  0  0
    4.3520    2.2673    0.0000 H   0  0  0  0  0  0  0  0  0  0  0  0
    3.7320    2.8873    0.0000 H   0  0  0  0  0  0  0  0  0  0  0  0
    3.1120    2.2673    0.0000 H   0  0  0  0  0  0  0  0  0  0  0  0
    7.7998   -0.3998    0.0000 H   0  0  0  0  0  0  0  0  0  0  0  0
    7.8161   -2.7926    0.0000 H   0  0  0  0  0  0  0  0  0  0  0  0
    8.6639   -2.5689    0.0000 H   0  0  0  0  0  0  0  0  0  0  0  0
    8.4403   -1.7211    0.0000 H   0  0  0  0  0  0  0  0  0  0  0  0
  1  2  1  0  0  0  0
  1  6  1  0  0  0  0
  1  7  1  0  0  0  0
  2  3  1  0  0  0  0
  2 19  1  0  0  0  0
  2 20  1  0  0  0  0
  3  4  1  0  0  0  0
  3  8  2  0  0  0  0
  4 10  2  0  0  0  0
  4 12  1  0  0  0  0
  5  8  1  0  0  0  0
  5  9  2  0  0  0  0
  5 13  1  0  0  0  0
  6 14  1  0  0  0  0
  6 23  1  0  0  0  0
  6 24  1  0  0  0  0
  7 15  1  0  0  0  0
  7 21  1  0  0  0  0
  7 22  1  0  0  0  0
  8 25  1  0  0  0  0
  9 10  1  0  0  0  0
  9 11  1  0  0  0  0
 10 26  1  0  0  0  0
 11 16  2  0  0  0  0
 11 27  1  0  0  0  0
 12 28  1  0  0  0  0
 12 29  1  0  0  0  0
 12 30  1  0  0  0  0
 13 17  2  0  0  0  0
 13 31  1  0  0  0  0
 14 32  1  0  0  0  0
 14 33  1  0  0  0  0
 14 34  1  0  0  0  0
 15 35  1  0  0  0  0
 15 36  1  0  0  0  0
 15 37  1  0  0  0  0
 16 17  1  0  0  0  0
 16 18  1  0  0  0  0
 17 38  1  0  0  0  0
 18 39  1  0  0  0  0
 18 40  1  0  0  0  0
 18 41  1  0  0  0  0
M  END
> <PUBCHEM_COMPOUND_CID>
34242852

> <PUBCHEM_COMPOUND_CANONICALIZED>
1

> <PUBCHEM_CACTVS_COMPLEXITY>
246

> <PUBCHEM_CACTVS_HBOND_ACCEPTOR>
1

> <PUBCHEM_CACTVS_HBOND_DONOR>
0

> <PUBCHEM_CACTVS_ROTATABLE_BOND>
4

> <PUBCHEM_CACTVS_SUBSKEYS>
AAADceB6AAAAAAAAAAAAAAAAAAAAAAAAAAAwYAAAAAAAAADBUAAAHAAAAAAADADBGAQyAMMAAACAAiBCAACCAAAgAAAIiAAIBIgIICKAkRGEIAhggACIiAcQgMAOwAACAAAQAACAAAQAACAAAAAAAAAAAA==

> <PUBCHEM_IUPAC_OPENEYE_NAME>
N-[(3,6-dimethyl-2-naphthyl)methyl]-N-ethyl-ethanamine

> <PUBCHEM_IUPAC_CAS_NAME>
N-[(3,6-dimethyl-2-naphthalenyl)methyl]-N-ethylethanamine

> <PUBCHEM_IUPAC_NAME>
N-[(3,6-dimethylnaphthalen-2-yl)methyl]-N-ethylethanamine

> <PUBCHEM_IUPAC_SYSTEMATIC_NAME>
N-[(3,6-dimethylnaphthalen-2-yl)methyl]-N-ethyl-ethanamine

> <PUBCHEM_IUPAC_TRADITIONAL_NAME>
(3,6-dimethyl-2-naphthyl)methyl-diethyl-amine

> <PUBCHEM_IUPAC_INCHI>
InChI=1S/C17H23N/c1-5-18(6-2)12-17-11-15-8-7-13(3)9-16(15)10-14(17)4/h7-11H,5-6,12H2,1-4H3

> <PUBCHEM_IUPAC_INCHIKEY>
AOWDZJQUAQYEFI-UHFFFAOYSA-N

> <PUBCHEM_XLOGP3>
4.9

> <PUBCHEM_EXACT_MASS>
241.18305

> <PUBCHEM_MOLECULAR_FORMULA>
C17H23N

> <PUBCHEM_MOLECULAR_WEIGHT>
241.37122

> <PUBCHEM_OPENEYE_CAN_SMILES>
CCN(CC)CC1=C(C=C2C=C(C=CC2=C1)C)C

> <PUBCHEM_OPENEYE_ISO_SMILES>
CCN(CC)CC1=C(C=C2C=C(C=CC2=C1)C)C

> <PUBCHEM_CACTVS_TPSA>
3.2

> <PUBCHEM_MONOISOTOPIC_WEIGHT>
241.18305

> <PUBCHEM_TOTAL_CHARGE>
0

> <PUBCHEM_HEAVY_ATOM_COUNT>
18

> <PUBCHEM_ATOM_DEF_STEREO_COUNT>
0

> <PUBCHEM_ATOM_UDEF_STEREO_COUNT>
0

> <PUBCHEM_BOND_DEF_STEREO_COUNT>
0

> <PUBCHEM_BOND_UDEF_STEREO_COUNT>
0

> <PUBCHEM_ISOTOPIC_ATOM_COUNT>
0

> <PUBCHEM_COMPONENT_COUNT>
1

> <PUBCHEM_CACTVS_TAUTO_COUNT>
1

> <PUBCHEM_COORDINATE_TYPE>
1
5
255

> <PUBCHEM_BONDANNOTATIONS>
11  16  8
13  17  8
16  17  8
3  4  8
3  8  8
4  10  8
5  13  8
5  8  8
5  9  8
9  10  8
9  11  8

$$$$
