61877723
  -OEChem-11301218202D

 38 39  0     0  0  0  0  0  0999 V2000
    4.3211    1.1482    0.0000 O   0  0  0  0  0  0  0  0  0  0  0  0
    5.9674    0.6101    0.0000 N   0  0  0  0  0  0  0  0  0  0  0  0
    4.6783   -2.1561    0.0000 N   0  0  0  0  0  0  0  0  0  0  0  0
    7.2566    1.7669    0.0000 C   0  0  0  0  0  0  0  0  0  0  0  0
    6.2781    1.5607    0.0000 C   0  0  0  0  0  0  0  0  0  0  0  0
    8.2351    1.9731    0.0000 C   0  0  0  0  0  0  0  0  0  0  0  0
    7.0504    2.7454    0.0000 C   0  0  0  0  0  0  0  0  0  0  0  0
    7.4628    0.7884    0.0000 C   0  0  0  0  0  0  0  0  0  0  0  0
    4.9889    0.4039    0.0000 C   0  0  0  0  0  0  0  0  0  0  0  0
    4.6783   -0.5466    0.0000 C   0  0  0  0  0  0  0  0  0  0  0  0
    6.6353   -0.1342    0.0000 C   0  0  0  0  0  0  0  0  0  0  0  0
    3.7320   -0.8513    0.0000 C   0  0  0  0  0  0  0  0  0  0  0  0
    3.7320   -1.8513    0.0000 C   0  0  0  0  0  0  0  0  0  0  0  0
    5.2619   -1.3513    0.0000 C   0  0  0  0  0  0  0  0  0  0  0  0
    2.8660   -0.3513    0.0000 C   0  0  0  0  0  0  0  0  0  0  0  0
    2.8660   -2.3513    0.0000 C   0  0  0  0  0  0  0  0  0  0  0  0
    2.0000   -0.8513    0.0000 C   0  0  0  0  0  0  0  0  0  0  0  0
    2.0000   -1.8513    0.0000 C   0  0  0  0  0  0  0  0  0  0  0  0
    6.2575    2.1803    0.0000 H   0  0  0  0  0  0  0  0  0  0  0  0
    5.6643    1.6480    0.0000 H   0  0  0  0  0  0  0  0  0  0  0  0
    6.8562    0.6605    0.0000 H   0  0  0  0  0  0  0  0  0  0  0  0
    8.3630    1.3664    0.0000 H   0  0  0  0  0  0  0  0  0  0  0  0
    8.8418    2.1010    0.0000 H   0  0  0  0  0  0  0  0  0  0  0  0
    8.1073    2.5798    0.0000 H   0  0  0  0  0  0  0  0  0  0  0  0
    7.6571    2.8732    0.0000 H   0  0  0  0  0  0  0  0  0  0  0  0
    6.9225    3.3521    0.0000 H   0  0  0  0  0  0  0  0  0  0  0  0
    6.4437    2.6175    0.0000 H   0  0  0  0  0  0  0  0  0  0  0  0
    7.5907    0.1817    0.0000 H   0  0  0  0  0  0  0  0  0  0  0  0
    8.0695    0.9162    0.0000 H   0  0  0  0  0  0  0  0  0  0  0  0
    6.1738   -0.5482    0.0000 H   0  0  0  0  0  0  0  0  0  0  0  0
    7.0494   -0.5956    0.0000 H   0  0  0  0  0  0  0  0  0  0  0  0
    7.0968    0.2799    0.0000 H   0  0  0  0  0  0  0  0  0  0  0  0
    5.8819   -1.3513    0.0000 H   0  0  0  0  0  0  0  0  0  0  0  0
    4.8709   -2.7454    0.0000 H   0  0  0  0  0  0  0  0  0  0  0  0
    2.8660    0.2687    0.0000 H   0  0  0  0  0  0  0  0  0  0  0  0
    2.8660   -2.9713    0.0000 H   0  0  0  0  0  0  0  0  0  0  0  0
    1.4631   -0.5413    0.0000 H   0  0  0  0  0  0  0  0  0  0  0  0
    1.4631   -2.1613    0.0000 H   0  0  0  0  0  0  0  0  0  0  0  0
  1  9  2  0  0  0  0
  2  5  1  0  0  0  0
  2  9  1  0  0  0  0
  2 11  1  0  0  0  0
  3 13  1  0  0  0  0
  3 14  1  0  0  0  0
  3 34  1  0  0  0  0
  4  5  1  0  0  0  0
  4  6  1  0  0  0  0
  4  7  1  0  0  0  0
  4  8  1  0  0  0  0
  5 19  1  0  0  0  0
  5 20  1  0  0  0  0
  6 22  1  0  0  0  0
  6 23  1  0  0  0  0
  6 24  1  0  0  0  0
  7 25  1  0  0  0  0
  7 26  1  0  0  0  0
  7 27  1  0  0  0  0
  8 21  1  0  0  0  0
  8 28  1  0  0  0  0
  8 29  1  0  0  0  0
  9 10  1  0  0  0  0
 10 12  1  0  0  0  0
 10 14  2  0  0  0  0
 11 30  1  0  0  0  0
 11 31  1  0  0  0  0
 11 32  1  0  0  0  0
 12 13  1  0  0  0  0
 12 15  2  0  0  0  0
 13 16  2  0  0  0  0
 14 33  1  0  0  0  0
 15 17  1  0  0  0  0
 15 35  1  0  0  0  0
 16 18  1  0  0  0  0
 16 36  1  0  0  0  0
 17 18  2  0  0  0  0
 17 37  1  0  0  0  0
 18 38  1  0  0  0  0
M  END
> <PUBCHEM_COMPOUND_CID>
61877723

> <PUBCHEM_COMPOUND_CANONICALIZED>
1

> <PUBCHEM_CACTVS_COMPLEXITY>
308

> <PUBCHEM_CACTVS_HBOND_ACCEPTOR>
1

> <PUBCHEM_CACTVS_HBOND_DONOR>
1

> <PUBCHEM_CACTVS_ROTATABLE_BOND>
3

> <PUBCHEM_CACTVS_SUBSKEYS>
AAADceBzIAAAAAAAAAAAAAAAAAAAAWAAAAAwAAAAAAAAAFgB8AAAHgAQAAAADgjBngQ+wPPJkACoAzV3VACCgCA1AiAI2aE4ZNgIIPrA1ZGEIYhglgDIyccciMCOgAAAAAACAAAAAAAAAAQAAAAAAAAAAA==

> <PUBCHEM_IUPAC_OPENEYE_NAME>
N-(2,2-dimethylpropyl)-N-methyl-1H-indole-3-carboxamide

> <PUBCHEM_IUPAC_CAS_NAME>
N-(2,2-dimethylpropyl)-N-methyl-1H-indole-3-carboxamide

> <PUBCHEM_IUPAC_NAME>
N-(2,2-dimethylpropyl)-N-methyl-1H-indole-3-carboxamide

> <PUBCHEM_IUPAC_SYSTEMATIC_NAME>
N-(2,2-dimethylpropyl)-N-methyl-1H-indole-3-carboxamide

> <PUBCHEM_IUPAC_TRADITIONAL_NAME>
N-methyl-N-neopentyl-1H-indole-3-carboxamide

> <PUBCHEM_IUPAC_INCHI>
InChI=1S/C15H20N2O/c1-15(2,3)10-17(4)14(18)12-9-16-13-8-6-5-7-11(12)13/h5-9,16H,10H2,1-4H3

> <PUBCHEM_IUPAC_INCHIKEY>
XUXXKVMHGHUXEO-UHFFFAOYSA-N

> <PUBCHEM_XLOGP3>
3.6

> <PUBCHEM_EXACT_MASS>
244.157563

> <PUBCHEM_MOLECULAR_FORMULA>
C15H20N2O

> <PUBCHEM_MOLECULAR_WEIGHT>
244.3321

> <PUBCHEM_OPENEYE_CAN_SMILES>
CC(C)(C)CN(C)C(=O)C1=CNC2=CC=CC=C21

> <PUBCHEM_OPENEYE_ISO_SMILES>
CC(C)(C)CN(C)C(=O)C1=CNC2=CC=CC=C21

> <PUBCHEM_CACTVS_TPSA>
36.1

> <PUBCHEM_MONOISOTOPIC_WEIGHT>
244.157563

> <PUBCHEM_TOTAL_CHARGE>
0

> <PUBCHEM_HEAVY_ATOM_COUNT>
18

> <PUBCHEM_ATOM_DEF_STEREO_COUNT>
0

> <PUBCHEM_ATOM_UDEF_STEREO_COUNT>
0

> <PUBCHEM_BOND_DEF_STEREO_COUNT>
0

> <PUBCHEM_BOND_UDEF_STEREO_COUNT>
0

> <PUBCHEM_ISOTOPIC_ATOM_COUNT>
0

> <PUBCHEM_COMPONENT_COUNT>
1

> <PUBCHEM_CACTVS_TAUTO_COUNT>
3

> <PUBCHEM_COORDINATE_TYPE>
1
5
255

> <PUBCHEM_BONDANNOTATIONS>
10  12  8
10  14  8
12  13  8
12  15  8
13  16  8
15  17  8
16  18  8
17  18  8
3  13  8
3  14  8

$$$$
61877724
  -OEChem-11301218202D

 41 42  0     0  0  0  0  0  0999 V2000
    6.6353   -0.5954    0.0000 O   0  0  0  0  0  0  0  0  0  0  0  0
    6.2781    1.0994    0.0000 N   0  0  0  0  0  0  0  0  0  0  0  0
    4.6783   -2.6173    0.0000 N   0  0  0  0  0  0  0  0  0  0  0  0
    7.5673    2.2561    0.0000 C   0  0  0  0  0  0  0  0  0  0  0  0
    7.2566    1.3056    0.0000 C   0  0  0  0  0  0  0  0  0  0  0  0
    7.8779    3.2066    0.0000 C   0  0  0  0  0  0  0  0  0  0  0  0
    8.5178    1.9455    0.0000 C   0  0  0  0  0  0  0  0  0  0  0  0
    6.6168    2.5668    0.0000 C   0  0  0  0  0  0  0  0  0  0  0  0
    5.9674    0.1489    0.0000 C   0  0  0  0  0  0  0  0  0  0  0  0
    4.9889   -0.0573    0.0000 C   0  0  0  0  0  0  0  0  0  0  0  0
    4.6783   -1.0079    0.0000 C   0  0  0  0  0  0  0  0  0  0  0  0
    5.6103    1.8437    0.0000 C   0  0  0  0  0  0  0  0  0  0  0  0
    3.7320   -1.3126    0.0000 C   0  0  0  0  0  0  0  0  0  0  0  0
    3.7320   -2.3126    0.0000 C   0  0  0  0  0  0  0  0  0  0  0  0
    5.2619   -1.8126    0.0000 C   0  0  0  0  0  0  0  0  0  0  0  0
    2.8660   -0.8126    0.0000 C   0  0  0  0  0  0  0  0  0  0  0  0
    2.8660   -2.8126    0.0000 C   0  0  0  0  0  0  0  0  0  0  0  0
    2.0000   -1.3126    0.0000 C   0  0  0  0  0  0  0  0  0  0  0  0
    2.0000   -2.3126    0.0000 C   0  0  0  0  0  0  0  0  0  0  0  0
    7.2772    0.6860    0.0000 H   0  0  0  0  0  0  0  0  0  0  0  0
    7.8704    1.2183    0.0000 H   0  0  0  0  0  0  0  0  0  0  0  0
    6.8094    3.1561    0.0000 H   0  0  0  0  0  0  0  0  0  0  0  0
    8.4672    3.0140    0.0000 H   0  0  0  0  0  0  0  0  0  0  0  0
    8.0705    3.7960    0.0000 H   0  0  0  0  0  0  0  0  0  0  0  0
    7.2886    3.3993    0.0000 H   0  0  0  0  0  0  0  0  0  0  0  0
    8.3252    1.3562    0.0000 H   0  0  0  0  0  0  0  0  0  0  0  0
    9.1071    1.7529    0.0000 H   0  0  0  0  0  0  0  0  0  0  0  0
    8.7104    2.5348    0.0000 H   0  0  0  0  0  0  0  0  0  0  0  0
    6.0274    2.7594    0.0000 H   0  0  0  0  0  0  0  0  0  0  0  0
    6.4241    1.9775    0.0000 H   0  0  0  0  0  0  0  0  0  0  0  0
    4.9684    0.5623    0.0000 H   0  0  0  0  0  0  0  0  0  0  0  0
    4.3751    0.0300    0.0000 H   0  0  0  0  0  0  0  0  0  0  0  0
    6.0717    2.2578    0.0000 H   0  0  0  0  0  0  0  0  0  0  0  0
    5.1962    2.3052    0.0000 H   0  0  0  0  0  0  0  0  0  0  0  0
    5.1488    1.4296    0.0000 H   0  0  0  0  0  0  0  0  0  0  0  0
    5.8819   -1.8126    0.0000 H   0  0  0  0  0  0  0  0  0  0  0  0
    4.8709   -3.2066    0.0000 H   0  0  0  0  0  0  0  0  0  0  0  0
    2.8660   -0.1926    0.0000 H   0  0  0  0  0  0  0  0  0  0  0  0
    2.8660   -3.4326    0.0000 H   0  0  0  0  0  0  0  0  0  0  0  0
    1.4631   -1.0026    0.0000 H   0  0  0  0  0  0  0  0  0  0  0  0
    1.4631   -2.6226    0.0000 H   0  0  0  0  0  0  0  0  0  0  0  0
  1  9  2  0  0  0  0
  2  5  1  0  0  0  0
  2  9  1  0  0  0  0
  2 12  1  0  0  0  0
  3 14  1  0  0  0  0
  3 15  1  0  0  0  0
  3 37  1  0  0  0  0
  4  5  1  0  0  0  0
  4  6  1  0  0  0  0
  4  7  1  0  0  0  0
  4  8  1  0  0  0  0
  5 20  1  0  0  0  0
  5 21  1  0  0  0  0
  6 23  1  0  0  0  0
  6 24  1  0  0  0  0
  6 25  1  0  0  0  0
  7 26  1  0  0  0  0
  7 27  1  0  0  0  0
  7 28  1  0  0  0  0
  8 22  1  0  0  0  0
  8 29  1  0  0  0  0
  8 30  1  0  0  0  0
  9 10  1  0  0  0  0
 10 11  1  0  0  0  0
 10 31  1  0  0  0  0
 10 32  1  0  0  0  0
 11 13  1  0  0  0  0
 11 15  2  0  0  0  0
 12 33  1  0  0  0  0
 12 34  1  0  0  0  0
 12 35  1  0  0  0  0
 13 14  1  0  0  0  0
 13 16  2  0  0  0  0
 14 17  2  0  0  0  0
 15 36  1  0  0  0  0
 16 18  1  0  0  0  0
 16 38  1  0  0  0  0
 17 19  1  0  0  0  0
 17 39  1  0  0  0  0
 18 19  2  0  0  0  0
 18 40  1  0  0  0  0
 19 41  1  0  0  0  0
M  END
> <PUBCHEM_COMPOUND_CID>
61877724

> <PUBCHEM_COMPOUND_CANONICALIZED>
1

> <PUBCHEM_CACTVS_COMPLEXITY>
321

> <PUBCHEM_CACTVS_HBOND_ACCEPTOR>
1

> <PUBCHEM_CACTVS_HBOND_DONOR>
1

> <PUBCHEM_CACTVS_ROTATABLE_BOND>
4

> <PUBCHEM_CACTVS_SUBSKEYS>
AAADceB7IAAAAAAAAAAAAAAAAAAAAWAAAAAwAAAAAAAAAFgB8AAAHgAQAAAADgjBngQ+wPPJkACoAzV3VACCgCAxAiAI2aE4ZJgIIPLAlZGEIAhglgDIyAccicCegAAAAAACAAAAAAAAAAQAAAAAAAAAAA==

> <PUBCHEM_IUPAC_OPENEYE_NAME>
N-(2,2-dimethylpropyl)-2-(1H-indol-3-yl)-N-methyl-acetamide

> <PUBCHEM_IUPAC_CAS_NAME>
N-(2,2-dimethylpropyl)-2-(1H-indol-3-yl)-N-methylacetamide

> <PUBCHEM_IUPAC_NAME>
N-(2,2-dimethylpropyl)-2-(1H-indol-3-yl)-N-methylacetamide

> <PUBCHEM_IUPAC_SYSTEMATIC_NAME>
N-(2,2-dimethylpropyl)-2-(1H-indol-3-yl)-N-methyl-ethanamide

> <PUBCHEM_IUPAC_TRADITIONAL_NAME>
2-(1H-indol-3-yl)-N-methyl-N-neopentyl-acetamide

> <PUBCHEM_IUPAC_INCHI>
InChI=1S/C16H22N2O/c1-16(2,3)11-18(4)15(19)9-12-10-17-14-8-6-5-7-13(12)14/h5-8,10,17H,9,11H2,1-4H3

> <PUBCHEM_IUPAC_INCHIKEY>
FSGXILCBHXVRQH-UHFFFAOYSA-N

> <PUBCHEM_XLOGP3>
3.1

> <PUBCHEM_EXACT_MASS>
258.173213

> <PUBCHEM_MOLECULAR_FORMULA>
C16H22N2O

> <PUBCHEM_MOLECULAR_WEIGHT>
258.35868

> <PUBCHEM_OPENEYE_CAN_SMILES>
CC(C)(C)CN(C)C(=O)CC1=CNC2=CC=CC=C21

> <PUBCHEM_OPENEYE_ISO_SMILES>
CC(C)(C)CN(C)C(=O)CC1=CNC2=CC=CC=C21

> <PUBCHEM_CACTVS_TPSA>
36.1

> <PUBCHEM_MONOISOTOPIC_WEIGHT>
258.173213

> <PUBCHEM_TOTAL_CHARGE>
0

> <PUBCHEM_HEAVY_ATOM_COUNT>
19

> <PUBCHEM_ATOM_DEF_STEREO_COUNT>
0

> <PUBCHEM_ATOM_UDEF_STEREO_COUNT>
0

> <PUBCHEM_BOND_DEF_STEREO_COUNT>
0

> <PUBCHEM_BOND_UDEF_STEREO_COUNT>
0

> <PUBCHEM_ISOTOPIC_ATOM_COUNT>
0

> <PUBCHEM_COMPONENT_COUNT>
1

> <PUBCHEM_CACTVS_TAUTO_COUNT>
1

> <PUBCHEM_COORDINATE_TYPE>
1
5
255

> <PUBCHEM_BONDANNOTATIONS>
11  13  8
11  15  8
13  14  8
13  16  8
14  17  8
16  18  8
17  19  8
18  19  8
3  14  8
3  15  8

$$$$
61877725
  -OEChem-11301218202D

 44 45  0     0  0  0  0  0  0999 V2000
    5.6103    1.7266    0.0000 O   0  0  0  0  0  0  0  0  0  0  0  0
    7.2566    1.1885    0.0000 N   0  0  0  0  0  0  0  0  0  0  0  0
    4.6783   -2.7344    0.0000 N   0  0  0  0  0  0  0  0  0  0  0  0
    8.5458    2.3452    0.0000 C   0  0  0  0  0  0  0  0  0  0  0  0
    7.5673    2.1390    0.0000 C   0  0  0  0  0  0  0  0  0  0  0  0
    9.5243    2.5515    0.0000 C   0  0  0  0  0  0  0  0  0  0  0  0
    8.3396    3.3238    0.0000 C   0  0  0  0  0  0  0  0  0  0  0  0
    8.7520    1.3667    0.0000 C   0  0  0  0  0  0  0  0  0  0  0  0
    5.9674    0.0318    0.0000 C   0  0  0  0  0  0  0  0  0  0  0  0
    6.2781    0.9823    0.0000 C   0  0  0  0  0  0  0  0  0  0  0  0
    4.9889   -0.1744    0.0000 C   0  0  0  0  0  0  0  0  0  0  0  0
    4.6783   -1.1250    0.0000 C   0  0  0  0  0  0  0  0  0  0  0  0
    7.9244    0.4442    0.0000 C   0  0  0  0  0  0  0  0  0  0  0  0
    3.7320   -1.4297    0.0000 C   0  0  0  0  0  0  0  0  0  0  0  0
    3.7320   -2.4297    0.0000 C   0  0  0  0  0  0  0  0  0  0  0  0
    5.2619   -1.9297    0.0000 C   0  0  0  0  0  0  0  0  0  0  0  0
    2.8660   -0.9297    0.0000 C   0  0  0  0  0  0  0  0  0  0  0  0
    2.8660   -2.9297    0.0000 C   0  0  0  0  0  0  0  0  0  0  0  0
    2.0000   -1.4297    0.0000 C   0  0  0  0  0  0  0  0  0  0  0  0
    2.0000   -2.4297    0.0000 C   0  0  0  0  0  0  0  0  0  0  0  0
    7.5467    2.7587    0.0000 H   0  0  0  0  0  0  0  0  0  0  0  0
    6.9534    2.2264    0.0000 H   0  0  0  0  0  0  0  0  0  0  0  0
    8.1453    1.2389    0.0000 H   0  0  0  0  0  0  0  0  0  0  0  0
    9.6521    1.9448    0.0000 H   0  0  0  0  0  0  0  0  0  0  0  0
   10.1310    2.6793    0.0000 H   0  0  0  0  0  0  0  0  0  0  0  0
    9.3964    3.1581    0.0000 H   0  0  0  0  0  0  0  0  0  0  0  0
    8.9462    3.4516    0.0000 H   0  0  0  0  0  0  0  0  0  0  0  0
    8.2117    3.9304    0.0000 H   0  0  0  0  0  0  0  0  0  0  0  0
    7.7329    3.1959    0.0000 H   0  0  0  0  0  0  0  0  0  0  0  0
    8.8798    0.7601    0.0000 H   0  0  0  0  0  0  0  0  0  0  0  0
    9.3587    1.4946    0.0000 H   0  0  0  0  0  0  0  0  0  0  0  0
    5.9880   -0.5879    0.0000 H   0  0  0  0  0  0  0  0  0  0  0  0
    6.5812   -0.0556    0.0000 H   0  0  0  0  0  0  0  0  0  0  0  0
    4.9684    0.4452    0.0000 H   0  0  0  0  0  0  0  0  0  0  0  0
    4.3751   -0.0871    0.0000 H   0  0  0  0  0  0  0  0  0  0  0  0
    7.4630    0.0301    0.0000 H   0  0  0  0  0  0  0  0  0  0  0  0
    8.3385   -0.0173    0.0000 H   0  0  0  0  0  0  0  0  0  0  0  0
    8.3859    0.8583    0.0000 H   0  0  0  0  0  0  0  0  0  0  0  0
    5.8819   -1.9297    0.0000 H   0  0  0  0  0  0  0  0  0  0  0  0
    4.8709   -3.3238    0.0000 H   0  0  0  0  0  0  0  0  0  0  0  0
    2.8660   -0.3097    0.0000 H   0  0  0  0  0  0  0  0  0  0  0  0
    2.8660   -3.5497    0.0000 H   0  0  0  0  0  0  0  0  0  0  0  0
    1.4631   -1.1197    0.0000 H   0  0  0  0  0  0  0  0  0  0  0  0
    1.4631   -2.7397    0.0000 H   0  0  0  0  0  0  0  0  0  0  0  0
  1 10  2  0  0  0  0
  2  5  1  0  0  0  0
  2 10  1  0  0  0  0
  2 13  1  0  0  0  0
  3 15  1  0  0  0  0
  3 16  1  0  0  0  0
  3 40  1  0  0  0  0
  4  5  1  0  0  0  0
  4  6  1  0  0  0  0
  4  7  1  0  0  0  0
  4  8  1  0  0  0  0
  5 21  1  0  0  0  0
  5 22  1  0  0  0  0
  6 24  1  0  0  0  0
  6 25  1  0  0  0  0
  6 26  1  0  0  0  0
  7 27  1  0  0  0  0
  7 28  1  0  0  0  0
  7 29  1  0  0  0  0
  8 23  1  0  0  0  0
  8 30  1  0  0  0  0
  8 31  1  0  0  0  0
  9 10  1  0  0  0  0
  9 11  1  0  0  0  0
  9 32  1  0  0  0  0
  9 33  1  0  0  0  0
 11 12  1  0  0  0  0
 11 34  1  0  0  0  0
 11 35  1  0  0  0  0
 12 14  1  0  0  0  0
 12 16  2  0  0  0  0
 13 36  1  0  0  0  0
 13 37  1  0  0  0  0
 13 38  1  0  0  0  0
 14 15  1  0  0  0  0
 14 17  2  0  0  0  0
 15 18  2  0  0  0  0
 16 39  1  0  0  0  0
 17 19  1  0  0  0  0
 17 41  1  0  0  0  0
 18 20  1  0  0  0  0
 18 42  1  0  0  0  0
 19 20  2  0  0  0  0
 19 43  1  0  0  0  0
 20 44  1  0  0  0  0
M  END
> <PUBCHEM_COMPOUND_CID>
61877725

> <PUBCHEM_COMPOUND_CANONICALIZED>
1

> <PUBCHEM_CACTVS_COMPLEXITY>
334

> <PUBCHEM_CACTVS_HBOND_ACCEPTOR>
1

> <PUBCHEM_CACTVS_HBOND_DONOR>
1

> <PUBCHEM_CACTVS_ROTATABLE_BOND>
5

> <PUBCHEM_CACTVS_SUBSKEYS>
AAADceB7IAAAAAAAAAAAAAAAAAAAAWAAAAAwAAAAAAAAAFgB8AAAHgAQAAAADgjBngQ+wPPJkACoAzV3VACCgCAxAiAI2aE4ZJgIIPLAkZGEIAhglgDIyAcYicCOgAAAAAACAAAAAAAAAAQAAAAAAAAAAA==

> <PUBCHEM_IUPAC_OPENEYE_NAME>
N-(2,2-dimethylpropyl)-3-(1H-indol-3-yl)-N-methyl-propanamide

> <PUBCHEM_IUPAC_CAS_NAME>
N-(2,2-dimethylpropyl)-3-(1H-indol-3-yl)-N-methylpropanamide

> <PUBCHEM_IUPAC_NAME>
N-(2,2-dimethylpropyl)-3-(1H-indol-3-yl)-N-methylpropanamide

> <PUBCHEM_IUPAC_SYSTEMATIC_NAME>
N-(2,2-dimethylpropyl)-3-(1H-indol-3-yl)-N-methyl-propanamide

> <PUBCHEM_IUPAC_TRADITIONAL_NAME>
3-(1H-indol-3-yl)-N-methyl-N-neopentyl-propionamide

> <PUBCHEM_IUPAC_INCHI>
InChI=1S/C17H24N2O/c1-17(2,3)12-19(4)16(20)10-9-13-11-18-15-8-6-5-7-14(13)15/h5-8,11,18H,9-10,12H2,1-4H3

> <PUBCHEM_IUPAC_INCHIKEY>
CSVLYUYADYLZQD-UHFFFAOYSA-N

> <PUBCHEM_XLOGP3>
3.4

> <PUBCHEM_EXACT_MASS>
272.188863

> <PUBCHEM_MOLECULAR_FORMULA>
C17H24N2O

> <PUBCHEM_MOLECULAR_WEIGHT>
272.38526

> <PUBCHEM_OPENEYE_CAN_SMILES>
CC(C)(C)CN(C)C(=O)CCC1=CNC2=CC=CC=C21

> <PUBCHEM_OPENEYE_ISO_SMILES>
CC(C)(C)CN(C)C(=O)CCC1=CNC2=CC=CC=C21

> <PUBCHEM_CACTVS_TPSA>
36.1

> <PUBCHEM_MONOISOTOPIC_WEIGHT>
272.188863

> <PUBCHEM_TOTAL_CHARGE>
0

> <PUBCHEM_HEAVY_ATOM_COUNT>
20

> <PUBCHEM_ATOM_DEF_STEREO_COUNT>
0

> <PUBCHEM_ATOM_UDEF_STEREO_COUNT>
0

> <PUBCHEM_BOND_DEF_STEREO_COUNT>
0

> <PUBCHEM_BOND_UDEF_STEREO_COUNT>
0

> <PUBCHEM_ISOTOPIC_ATOM_COUNT>
0

> <PUBCHEM_COMPONENT_COUNT>
1

> <PUBCHEM_CACTVS_TAUTO_COUNT>
1

> <PUBCHEM_COORDINATE_TYPE>
1
5
255

> <PUBCHEM_BONDANNOTATIONS>
12  14  8
12  16  8
14  15  8
14  17  8
15  18  8
17  19  8
18  20  8
19  20  8
3  15  8
3  16  8

$$$$
61878130
  -OEChem-11301218202D

 47 48  0     0  0  0  0  0  0999 V2000
    7.9244   -0.0171    0.0000 O   0  0  0  0  0  0  0  0  0  0  0  0
    7.5673    1.6778    0.0000 N   0  0  0  0  0  0  0  0  0  0  0  0
    4.6783   -3.1957    0.0000 N   0  0  0  0  0  0  0  0  0  0  0  0
    8.8564    2.8345    0.0000 C   0  0  0  0  0  0  0  0  0  0  0  0
    8.5458    1.8840    0.0000 C   0  0  0  0  0  0  0  0  0  0  0  0
    9.1671    3.7850    0.0000 C   0  0  0  0  0  0  0  0  0  0  0  0
    9.8070    2.5238    0.0000 C   0  0  0  0  0  0  0  0  0  0  0  0
    7.9059    3.1452    0.0000 C   0  0  0  0  0  0  0  0  0  0  0  0
    5.9674   -0.4295    0.0000 C   0  0  0  0  0  0  0  0  0  0  0  0
    6.2781    0.5210    0.0000 C   0  0  0  0  0  0  0  0  0  0  0  0
    7.2566    0.7272    0.0000 C   0  0  0  0  0  0  0  0  0  0  0  0
    4.9889   -0.6357    0.0000 C   0  0  0  0  0  0  0  0  0  0  0  0
    4.6783   -1.5862    0.0000 C   0  0  0  0  0  0  0  0  0  0  0  0
    6.8994    2.4221    0.0000 C   0  0  0  0  0  0  0  0  0  0  0  0
    3.7320   -1.8910    0.0000 C   0  0  0  0  0  0  0  0  0  0  0  0
    3.7320   -2.8910    0.0000 C   0  0  0  0  0  0  0  0  0  0  0  0
    5.2619   -2.3910    0.0000 C   0  0  0  0  0  0  0  0  0  0  0  0
    2.8660   -1.3910    0.0000 C   0  0  0  0  0  0  0  0  0  0  0  0
    2.8660   -3.3910    0.0000 C   0  0  0  0  0  0  0  0  0  0  0  0
    2.0000   -1.8910    0.0000 C   0  0  0  0  0  0  0  0  0  0  0  0
    2.0000   -2.8910    0.0000 C   0  0  0  0  0  0  0  0  0  0  0  0
    8.5663    1.2643    0.0000 H   0  0  0  0  0  0  0  0  0  0  0  0
    9.1596    1.7966    0.0000 H   0  0  0  0  0  0  0  0  0  0  0  0
    8.0985    3.7345    0.0000 H   0  0  0  0  0  0  0  0  0  0  0  0
    9.7564    3.5924    0.0000 H   0  0  0  0  0  0  0  0  0  0  0  0
    9.3597    4.3744    0.0000 H   0  0  0  0  0  0  0  0  0  0  0  0
    8.5778    3.9776    0.0000 H   0  0  0  0  0  0  0  0  0  0  0  0
    9.6144    1.9345    0.0000 H   0  0  0  0  0  0  0  0  0  0  0  0
   10.3963    2.3312    0.0000 H   0  0  0  0  0  0  0  0  0  0  0  0
    9.9996    3.1132    0.0000 H   0  0  0  0  0  0  0  0  0  0  0  0
    7.3166    3.3378    0.0000 H   0  0  0  0  0  0  0  0  0  0  0  0
    7.7133    2.5558    0.0000 H   0  0  0  0  0  0  0  0  0  0  0  0
    5.9880   -1.0492    0.0000 H   0  0  0  0  0  0  0  0  0  0  0  0
    6.5812   -0.5168    0.0000 H   0  0  0  0  0  0  0  0  0  0  0  0
    6.2575    1.1407    0.0000 H   0  0  0  0  0  0  0  0  0  0  0  0
    5.6643    0.6084    0.0000 H   0  0  0  0  0  0  0  0  0  0  0  0
    4.9684   -0.0161    0.0000 H   0  0  0  0  0  0  0  0  0  0  0  0
    4.3751   -0.5484    0.0000 H   0  0  0  0  0  0  0  0  0  0  0  0
    7.3609    2.8361    0.0000 H   0  0  0  0  0  0  0  0  0  0  0  0
    6.4854    2.8835    0.0000 H   0  0  0  0  0  0  0  0  0  0  0  0
    6.4380    2.0080    0.0000 H   0  0  0  0  0  0  0  0  0  0  0  0
    5.8819   -2.3910    0.0000 H   0  0  0  0  0  0  0  0  0  0  0  0
    4.8709   -3.7850    0.0000 H   0  0  0  0  0  0  0  0  0  0  0  0
    2.8660   -0.7710    0.0000 H   0  0  0  0  0  0  0  0  0  0  0  0
    2.8660   -4.0110    0.0000 H   0  0  0  0  0  0  0  0  0  0  0  0
    1.4631   -1.5810    0.0000 H   0  0  0  0  0  0  0  0  0  0  0  0
    1.4631   -3.2010    0.0000 H   0  0  0  0  0  0  0  0  0  0  0  0
  1 11  2  0  0  0  0
  2  5  1  0  0  0  0
  2 11  1  0  0  0  0
  2 14  1  0  0  0  0
  3 16  1  0  0  0  0
  3 17  1  0  0  0  0
  3 43  1  0  0  0  0
  4  5  1  0  0  0  0
  4  6  1  0  0  0  0
  4  7  1  0  0  0  0
  4  8  1  0  0  0  0
  5 22  1  0  0  0  0
  5 23  1  0  0  0  0
  6 25  1  0  0  0  0
  6 26  1  0  0  0  0
  6 27  1  0  0  0  0
  7 28  1  0  0  0  0
  7 29  1  0  0  0  0
  7 30  1  0  0  0  0
  8 24  1  0  0  0  0
  8 31  1  0  0  0  0
  8 32  1  0  0  0  0
  9 10  1  0  0  0  0
  9 12  1  0  0  0  0
  9 33  1  0  0  0  0
  9 34  1  0  0  0  0
 10 11  1  0  0  0  0
 10 35  1  0  0  0  0
 10 36  1  0  0  0  0
 12 13  1  0  0  0  0
 12 37  1  0  0  0  0
 12 38  1  0  0  0  0
 13 15  1  0  0  0  0
 13 17  2  0  0  0  0
 14 39  1  0  0  0  0
 14 40  1  0  0  0  0
 14 41  1  0  0  0  0
 15 16  1  0  0  0  0
 15 18  2  0  0  0  0
 16 19  2  0  0  0  0
 17 42  1  0  0  0  0
 18 20  1  0  0  0  0
 18 44  1  0  0  0  0
 19 21  1  0  0  0  0
 19 45  1  0  0  0  0
 20 21  2  0  0  0  0
 20 46  1  0  0  0  0
 21 47  1  0  0  0  0
M  END
> <PUBCHEM_COMPOUND_CID>
61878130

> <PUBCHEM_COMPOUND_CANONICALIZED>
1

> <PUBCHEM_CACTVS_COMPLEXITY>
348

> <PUBCHEM_CACTVS_HBOND_ACCEPTOR>
1

> <PUBCHEM_CACTVS_HBOND_DONOR>
1

> <PUBCHEM_CACTVS_ROTATABLE_BOND>
6

> <PUBCHEM_CACTVS_SUBSKEYS>
AAADceB7IAAAAAAAAAAAAAAAAAAAAWAAAAAwAAAAAAAAAFgB8AAAHgAQAAAADgjBngQ+wPPJkACoAzV3VACCgCAxAiAI2aE4ZJgIIPLAkZGEIAhglgDIyAcYiMCOgAAAAAACAAAAAAAAAAQAAAAAAAAAAA==

> <PUBCHEM_IUPAC_OPENEYE_NAME>
N-(2,2-dimethylpropyl)-4-(1H-indol-3-yl)-N-methyl-butanamide

> <PUBCHEM_IUPAC_CAS_NAME>
N-(2,2-dimethylpropyl)-4-(1H-indol-3-yl)-N-methylbutanamide

> <PUBCHEM_IUPAC_NAME>
N-(2,2-dimethylpropyl)-4-(1H-indol-3-yl)-N-methylbutanamide

> <PUBCHEM_IUPAC_SYSTEMATIC_NAME>
N-(2,2-dimethylpropyl)-4-(1H-indol-3-yl)-N-methyl-butanamide

> <PUBCHEM_IUPAC_TRADITIONAL_NAME>
4-(1H-indol-3-yl)-N-methyl-N-neopentyl-butyramide

> <PUBCHEM_IUPAC_INCHI>
InChI=1S/C18H26N2O/c1-18(2,3)13-20(4)17(21)11-7-8-14-12-19-16-10-6-5-9-15(14)16/h5-6,9-10,12,19H,7-8,11,13H2,1-4H3

> <PUBCHEM_IUPAC_INCHIKEY>
NHVJVLNCXKTNMB-UHFFFAOYSA-N

> <PUBCHEM_XLOGP3>
4

> <PUBCHEM_EXACT_MASS>
286.204513

> <PUBCHEM_MOLECULAR_FORMULA>
C18H26N2O

> <PUBCHEM_MOLECULAR_WEIGHT>
286.41184

> <PUBCHEM_OPENEYE_CAN_SMILES>
CC(C)(C)CN(C)C(=O)CCCC1=CNC2=CC=CC=C21

> <PUBCHEM_OPENEYE_ISO_SMILES>
CC(C)(C)CN(C)C(=O)CCCC1=CNC2=CC=CC=C21

> <PUBCHEM_CACTVS_TPSA>
36.1

> <PUBCHEM_MONOISOTOPIC_WEIGHT>
286.204513

> <PUBCHEM_TOTAL_CHARGE>
0

> <PUBCHEM_HEAVY_ATOM_COUNT>
21

> <PUBCHEM_ATOM_DEF_STEREO_COUNT>
0

> <PUBCHEM_ATOM_UDEF_STEREO_COUNT>
0

> <PUBCHEM_BOND_DEF_STEREO_COUNT>
0

> <PUBCHEM_BOND_UDEF_STEREO_COUNT>
0

> <PUBCHEM_ISOTOPIC_ATOM_COUNT>
0

> <PUBCHEM_COMPONENT_COUNT>
1

> <PUBCHEM_CACTVS_TAUTO_COUNT>
1

> <PUBCHEM_COORDINATE_TYPE>
1
5
255

> <PUBCHEM_BONDANNOTATIONS>
13  15  8
13  17  8
15  16  8
15  18  8
16  19  8
18  20  8
19  21  8
20  21  8
3  16  8
3  17  8

$$$$
61878131
  -OEChem-11301218202D

 38 39  0     0  0  0  0  0  0999 V2000
    6.7619    1.4680    0.0000 O   0  0  0  0  0  0  0  0  0  0  0  0
    6.7619   -0.2640    0.0000 N   0  0  0  0  0  0  0  0  0  0  0  0
    4.6783    1.4067    0.0000 N   0  0  0  0  0  0  0  0  0  0  0  0
    8.2619   -1.1300    0.0000 C   0  0  0  0  0  0  0  0  0  0  0  0
    7.7619   -0.2640    0.0000 C   0  0  0  0  0  0  0  0  0  0  0  0
    8.7619   -1.9961    0.0000 C   0  0  0  0  0  0  0  0  0  0  0  0
    9.1279   -0.6300    0.0000 C   0  0  0  0  0  0  0  0  0  0  0  0
    7.3958   -1.6300    0.0000 C   0  0  0  0  0  0  0  0  0  0  0  0
    6.2619    0.6020    0.0000 C   0  0  0  0  0  0  0  0  0  0  0  0
    5.2619    0.6020    0.0000 C   0  0  0  0  0  0  0  0  0  0  0  0
    6.2619   -1.1300    0.0000 C   0  0  0  0  0  0  0  0  0  0  0  0
    3.7320    1.1020    0.0000 C   0  0  0  0  0  0  0  0  0  0  0  0
    3.7320    0.1020    0.0000 C   0  0  0  0  0  0  0  0  0  0  0  0
    4.6783   -0.2027    0.0000 C   0  0  0  0  0  0  0  0  0  0  0  0
    2.8660    1.6020    0.0000 C   0  0  0  0  0  0  0  0  0  0  0  0
    2.8660   -0.3980    0.0000 C   0  0  0  0  0  0  0  0  0  0  0  0
    2.0000    1.1020    0.0000 C   0  0  0  0  0  0  0  0  0  0  0  0
    2.0000    0.1020    0.0000 C   0  0  0  0  0  0  0  0  0  0  0  0
    8.3445   -0.0520    0.0000 H   0  0  0  0  0  0  0  0  0  0  0  0
    7.6542    0.3466    0.0000 H   0  0  0  0  0  0  0  0  0  0  0  0
    7.0858   -1.0931    0.0000 H   0  0  0  0  0  0  0  0  0  0  0  0
    8.2249   -2.3061    0.0000 H   0  0  0  0  0  0  0  0  0  0  0  0
    9.0719   -2.5330    0.0000 H   0  0  0  0  0  0  0  0  0  0  0  0
    9.2988   -1.6861    0.0000 H   0  0  0  0  0  0  0  0  0  0  0  0
    9.4379   -1.1670    0.0000 H   0  0  0  0  0  0  0  0  0  0  0  0
    9.6648   -0.3200    0.0000 H   0  0  0  0  0  0  0  0  0  0  0  0
    8.8179   -0.0931    0.0000 H   0  0  0  0  0  0  0  0  0  0  0  0
    6.8589   -1.9400    0.0000 H   0  0  0  0  0  0  0  0  0  0  0  0
    7.7058   -2.1670    0.0000 H   0  0  0  0  0  0  0  0  0  0  0  0
    5.7249   -0.8200    0.0000 H   0  0  0  0  0  0  0  0  0  0  0  0
    5.9519   -1.6670    0.0000 H   0  0  0  0  0  0  0  0  0  0  0  0
    6.7988   -1.4400    0.0000 H   0  0  0  0  0  0  0  0  0  0  0  0
    4.8709    1.9961    0.0000 H   0  0  0  0  0  0  0  0  0  0  0  0
    4.8709   -0.7920    0.0000 H   0  0  0  0  0  0  0  0  0  0  0  0
    2.8660    2.2220    0.0000 H   0  0  0  0  0  0  0  0  0  0  0  0
    2.8660   -1.0180    0.0000 H   0  0  0  0  0  0  0  0  0  0  0  0
    1.4631    1.4120    0.0000 H   0  0  0  0  0  0  0  0  0  0  0  0
    1.4631   -0.2080    0.0000 H   0  0  0  0  0  0  0  0  0  0  0  0
  1  9  2  0  0  0  0
  2  5  1  0  0  0  0
  2  9  1  0  0  0  0
  2 11  1  0  0  0  0
  3 10  1  0  0  0  0
  3 12  1  0  0  0  0
  3 33  1  0  0  0  0
  4  5  1  0  0  0  0
  4  6  1  0  0  0  0
  4  7  1  0  0  0  0
  4  8  1  0  0  0  0
  5 19  1  0  0  0  0
  5 20  1  0  0  0  0
  6 22  1  0  0  0  0
  6 23  1  0  0  0  0
  6 24  1  0  0  0  0
  7 25  1  0  0  0  0
  7 26  1  0  0  0  0
  7 27  1  0  0  0  0
  8 21  1  0  0  0  0
  8 28  1  0  0  0  0
  8 29  1  0  0  0  0
  9 10  1  0  0  0  0
 10 14  2  0  0  0  0
 11 30  1  0  0  0  0
 11 31  1  0  0  0  0
 11 32  1  0  0  0  0
 12 13  1  0  0  0  0
 12 15  2  0  0  0  0
 13 14  1  0  0  0  0
 13 16  2  0  0  0  0
 14 34  1  0  0  0  0
 15 17  1  0  0  0  0
 15 35  1  0  0  0  0
 16 18  1  0  0  0  0
 16 36  1  0  0  0  0
 17 18  2  0  0  0  0
 17 37  1  0  0  0  0
 18 38  1  0  0  0  0
M  END
> <PUBCHEM_COMPOUND_CID>
61878131

> <PUBCHEM_COMPOUND_CANONICALIZED>
1

> <PUBCHEM_CACTVS_COMPLEXITY>
308

> <PUBCHEM_CACTVS_HBOND_ACCEPTOR>
1

> <PUBCHEM_CACTVS_HBOND_DONOR>
1

> <PUBCHEM_CACTVS_ROTATABLE_BOND>
3

> <PUBCHEM_CACTVS_SUBSKEYS>
AAADceBzIAAAAAAAAAAAAAAAAAAAAWAAAAAwAAAAAAAAAFgB8AAAHgAQAAAADgjBngQywPPJkACoAyVyVACCgCAnAiAImSG4ZNgIYPLAlbGUIQhglgDIyYcYiYCeAAAAAAACAAAAAAAAAAQAAAAAAAAAAA==

> <PUBCHEM_IUPAC_OPENEYE_NAME>
N-(2,2-dimethylpropyl)-N-methyl-1H-indole-2-carboxamide

> <PUBCHEM_IUPAC_CAS_NAME>
N-(2,2-dimethylpropyl)-N-methyl-1H-indole-2-carboxamide

> <PUBCHEM_IUPAC_NAME>
N-(2,2-dimethylpropyl)-N-methyl-1H-indole-2-carboxamide

> <PUBCHEM_IUPAC_SYSTEMATIC_NAME>
N-(2,2-dimethylpropyl)-N-methyl-1H-indole-2-carboxamide

> <PUBCHEM_IUPAC_TRADITIONAL_NAME>
N-methyl-N-neopentyl-1H-indole-2-carboxamide

> <PUBCHEM_IUPAC_INCHI>
InChI=1S/C15H20N2O/c1-15(2,3)10-17(4)14(18)13-9-11-7-5-6-8-12(11)16-13/h5-9,16H,10H2,1-4H3

> <PUBCHEM_IUPAC_INCHIKEY>
QGTNXPCMBJJULN-UHFFFAOYSA-N

> <PUBCHEM_XLOGP3>
4

> <PUBCHEM_EXACT_MASS>
244.157563

> <PUBCHEM_MOLECULAR_FORMULA>
C15H20N2O

> <PUBCHEM_MOLECULAR_WEIGHT>
244.3321

> <PUBCHEM_OPENEYE_CAN_SMILES>
CC(C)(C)CN(C)C(=O)C1=CC2=CC=CC=C2N1

> <PUBCHEM_OPENEYE_ISO_SMILES>
CC(C)(C)CN(C)C(=O)C1=CC2=CC=CC=C2N1

> <PUBCHEM_CACTVS_TPSA>
36.1

> <PUBCHEM_MONOISOTOPIC_WEIGHT>
244.157563

> <PUBCHEM_TOTAL_CHARGE>
0

> <PUBCHEM_HEAVY_ATOM_COUNT>
18

> <PUBCHEM_ATOM_DEF_STEREO_COUNT>
0

> <PUBCHEM_ATOM_UDEF_STEREO_COUNT>
0

> <PUBCHEM_BOND_DEF_STEREO_COUNT>
0

> <PUBCHEM_BOND_UDEF_STEREO_COUNT>
0

> <PUBCHEM_ISOTOPIC_ATOM_COUNT>
0

> <PUBCHEM_COMPONENT_COUNT>
1

> <PUBCHEM_CACTVS_TAUTO_COUNT>
6

> <PUBCHEM_COORDINATE_TYPE>
1
5
255

> <PUBCHEM_BONDANNOTATIONS>
10  14  8
12  13  8
12  15  8
13  14  8
13  16  8
15  17  8
16  18  8
17  18  8
3  10  8
3  12  8

$$$$
61878336
  -OEChem-11301218202D

 38 39  0     0  0  0  0  0  0999 V2000
    5.4641    0.7640    0.0000 O   0  0  0  0  0  0  0  0  0  0  0  0
    3.7320    0.7640    0.0000 N   0  0  0  0  0  0  0  0  0  0  0  0
    6.4103   -2.5407    0.0000 N   0  0  0  0  0  0  0  0  0  0  0  0
    2.8660    2.2640    0.0000 C   0  0  0  0  0  0  0  0  0  0  0  0
    3.7320    1.7640    0.0000 C   0  0  0  0  0  0  0  0  0  0  0  0
    2.0000    2.7640    0.0000 C   0  0  0  0  0  0  0  0  0  0  0  0
    3.3660    3.1300    0.0000 C   0  0  0  0  0  0  0  0  0  0  0  0
    2.3660    1.3980    0.0000 C   0  0  0  0  0  0  0  0  0  0  0  0
    4.5981    0.2640    0.0000 C   0  0  0  0  0  0  0  0  0  0  0  0
    4.5981   -0.7360    0.0000 C   0  0  0  0  0  0  0  0  0  0  0  0
    2.8660    0.2640    0.0000 C   0  0  0  0  0  0  0  0  0  0  0  0
    5.4641   -1.2360    0.0000 C   0  0  0  0  0  0  0  0  0  0  0  0
    5.4641   -2.2360    0.0000 C   0  0  0  0  0  0  0  0  0  0  0  0
    3.7320   -1.2360    0.0000 C   0  0  0  0  0  0  0  0  0  0  0  0
    6.4103   -0.9313    0.0000 C   0  0  0  0  0  0  0  0  0  0  0  0
    4.5981   -2.7360    0.0000 C   0  0  0  0  0  0  0  0  0  0  0  0
    3.7320   -2.2360    0.0000 C   0  0  0  0  0  0  0  0  0  0  0  0
    6.9939   -1.7360    0.0000 C   0  0  0  0  0  0  0  0  0  0  0  0
    4.3426    1.6564    0.0000 H   0  0  0  0  0  0  0  0  0  0  0  0
    3.9441    2.3466    0.0000 H   0  0  0  0  0  0  0  0  0  0  0  0
    1.8291    1.7080    0.0000 H   0  0  0  0  0  0  0  0  0  0  0  0
    2.3100    3.3010    0.0000 H   0  0  0  0  0  0  0  0  0  0  0  0
    1.4631    3.0740    0.0000 H   0  0  0  0  0  0  0  0  0  0  0  0
    1.6900    2.2271    0.0000 H   0  0  0  0  0  0  0  0  0  0  0  0
    3.9030    2.8200    0.0000 H   0  0  0  0  0  0  0  0  0  0  0  0
    3.6760    3.6670    0.0000 H   0  0  0  0  0  0  0  0  0  0  0  0
    2.8291    3.4400    0.0000 H   0  0  0  0  0  0  0  0  0  0  0  0
    2.0560    0.8611    0.0000 H   0  0  0  0  0  0  0  0  0  0  0  0
    2.9030    1.0880    0.0000 H   0  0  0  0  0  0  0  0  0  0  0  0
    2.5560    0.8010    0.0000 H   0  0  0  0  0  0  0  0  0  0  0  0
    2.3291   -0.0460    0.0000 H   0  0  0  0  0  0  0  0  0  0  0  0
    3.1760   -0.2729    0.0000 H   0  0  0  0  0  0  0  0  0  0  0  0
    3.1951   -0.9260    0.0000 H   0  0  0  0  0  0  0  0  0  0  0  0
    6.6029   -0.3419    0.0000 H   0  0  0  0  0  0  0  0  0  0  0  0
    4.5981   -3.3560    0.0000 H   0  0  0  0  0  0  0  0  0  0  0  0
    6.6029   -3.1300    0.0000 H   0  0  0  0  0  0  0  0  0  0  0  0
    3.1951   -2.5460    0.0000 H   0  0  0  0  0  0  0  0  0  0  0  0
    7.6139   -1.7360    0.0000 H   0  0  0  0  0  0  0  0  0  0  0  0
  1  9  2  0  0  0  0
  2  5  1  0  0  0  0
  2  9  1  0  0  0  0
  2 11  1  0  0  0  0
  3 13  1  0  0  0  0
  3 18  1  0  0  0  0
  3 36  1  0  0  0  0
  4  5  1  0  0  0  0
  4  6  1  0  0  0  0
  4  7  1  0  0  0  0
  4  8  1  0  0  0  0
  5 19  1  0  0  0  0
  5 20  1  0  0  0  0
  6 22  1  0  0  0  0
  6 23  1  0  0  0  0
  6 24  1  0  0  0  0
  7 25  1  0  0  0  0
  7 26  1  0  0  0  0
  7 27  1  0  0  0  0
  8 21  1  0  0  0  0
  8 28  1  0  0  0  0
  8 29  1  0  0  0  0
  9 10  1  0  0  0  0
 10 12  2  0  0  0  0
 10 14  1  0  0  0  0
 11 30  1  0  0  0  0
 11 31  1  0  0  0  0
 11 32  1  0  0  0  0
 12 13  1  0  0  0  0
 12 15  1  0  0  0  0
 13 16  2  0  0  0  0
 14 17  2  0  0  0  0
 14 33  1  0  0  0  0
 15 18  2  0  0  0  0
 15 34  1  0  0  0  0
 16 17  1  0  0  0  0
 16 35  1  0  0  0  0
 17 37  1  0  0  0  0
 18 38  1  0  0  0  0
M  END
> <PUBCHEM_COMPOUND_CID>
61878336

> <PUBCHEM_COMPOUND_CANONICALIZED>
1

> <PUBCHEM_CACTVS_COMPLEXITY>
308

> <PUBCHEM_CACTVS_HBOND_ACCEPTOR>
1

> <PUBCHEM_CACTVS_HBOND_DONOR>
1

> <PUBCHEM_CACTVS_ROTATABLE_BOND>
3

> <PUBCHEM_CACTVS_SUBSKEYS>
AAADceBzIAAAAAAAAAAAAAAAAAAAAWAAAAAwAAAAAAAAAFgB8AAAHgAQAAAADgjBngQ+wPPJkACoAzV3VACCgCA1AiAI2aE4ZNgIIPLAlZGEIQhglgDIyYcciYCOgAAAQAASAAAAAACAACQAAAAAAAAAAA==

> <PUBCHEM_IUPAC_OPENEYE_NAME>
N-(2,2-dimethylpropyl)-N-methyl-1H-indole-4-carboxamide

> <PUBCHEM_IUPAC_CAS_NAME>
N-(2,2-dimethylpropyl)-N-methyl-1H-indole-4-carboxamide

> <PUBCHEM_IUPAC_NAME>
N-(2,2-dimethylpropyl)-N-methyl-1H-indole-4-carboxamide

> <PUBCHEM_IUPAC_SYSTEMATIC_NAME>
N-(2,2-dimethylpropyl)-N-methyl-1H-indole-4-carboxamide

> <PUBCHEM_IUPAC_TRADITIONAL_NAME>
N-methyl-N-neopentyl-1H-indole-4-carboxamide

> <PUBCHEM_IUPAC_INCHI>
InChI=1S/C15H20N2O/c1-15(2,3)10-17(4)14(18)12-6-5-7-13-11(12)8-9-16-13/h5-9,16H,10H2,1-4H3

> <PUBCHEM_IUPAC_INCHIKEY>
LFHNMXIRTKELCS-UHFFFAOYSA-N

> <PUBCHEM_XLOGP3>
3

> <PUBCHEM_EXACT_MASS>
244.157563

> <PUBCHEM_MOLECULAR_FORMULA>
C15H20N2O

> <PUBCHEM_MOLECULAR_WEIGHT>
244.3321

> <PUBCHEM_OPENEYE_CAN_SMILES>
CC(C)(C)CN(C)C(=O)C1=C2C=CNC2=CC=C1

> <PUBCHEM_OPENEYE_ISO_SMILES>
CC(C)(C)CN(C)C(=O)C1=C2C=CNC2=CC=C1

> <PUBCHEM_CACTVS_TPSA>
36.1

> <PUBCHEM_MONOISOTOPIC_WEIGHT>
244.157563

> <PUBCHEM_TOTAL_CHARGE>
0

> <PUBCHEM_HEAVY_ATOM_COUNT>
18

> <PUBCHEM_ATOM_DEF_STEREO_COUNT>
0

> <PUBCHEM_ATOM_UDEF_STEREO_COUNT>
0

> <PUBCHEM_BOND_DEF_STEREO_COUNT>
0

> <PUBCHEM_BOND_UDEF_STEREO_COUNT>
0

> <PUBCHEM_ISOTOPIC_ATOM_COUNT>
0

> <PUBCHEM_COMPONENT_COUNT>
1

> <PUBCHEM_CACTVS_TAUTO_COUNT>
3

> <PUBCHEM_COORDINATE_TYPE>
1
5
255

> <PUBCHEM_BONDANNOTATIONS>
10  12  8
10  14  8
12  13  8
12  15  8
13  16  8
14  17  8
15  18  8
16  17  8
3  13  8
3  18  8

$$$$
61889653
  -OEChem-11301218212D

 33 35  0     1  0  0  0  0  0999 V2000
    4.2690    0.5140    0.0000 O   0  0  0  0  0  0  0  0  0  0  0  0
    2.5369    0.5140    0.0000 N   0  0  0  0  0  0  0  0  0  0  0  0
    5.2152   -2.7907    0.0000 N   0  0  0  0  0  0  0  0  0  0  0  0
    3.0369    2.3800    0.0000 C   0  0  0  0  0  0  0  0  0  0  0  0
    2.5369    1.5140    0.0000 C   0  0  3  0  0  0  0  0  0  0  0  0
    2.0369    2.3800    0.0000 C   0  0  0  0  0  0  0  0  0  0  0  0
    3.0369    3.3800    0.0000 C   0  0  0  0  0  0  0  0  0  0  0  0
    3.9030    1.8800    0.0000 C   0  0  0  0  0  0  0  0  0  0  0  0
    3.4030    0.0140    0.0000 C   0  0  0  0  0  0  0  0  0  0  0  0
    3.4030   -0.9860    0.0000 C   0  0  0  0  0  0  0  0  0  0  0  0
    4.2690   -1.4860    0.0000 C   0  0  0  0  0  0  0  0  0  0  0  0
    2.5369   -1.4860    0.0000 C   0  0  0  0  0  0  0  0  0  0  0  0
    4.2690   -2.4860    0.0000 C   0  0  0  0  0  0  0  0  0  0  0  0
    5.2152   -1.1812    0.0000 C   0  0  0  0  0  0  0  0  0  0  0  0
    2.5369   -2.4860    0.0000 C   0  0  0  0  0  0  0  0  0  0  0  0
    3.4030   -2.9860    0.0000 C   0  0  0  0  0  0  0  0  0  0  0  0
    5.7988   -1.9860    0.0000 C   0  0  0  0  0  0  0  0  0  0  0  0
    3.1358    1.3536    0.0000 H   0  0  0  0  0  0  0  0  0  0  0  0
    1.9293    2.9906    0.0000 H   0  0  0  0  0  0  0  0  0  0  0  0
    1.4543    2.1680    0.0000 H   0  0  0  0  0  0  0  0  0  0  0  0
    3.5930    1.3431    0.0000 H   0  0  0  0  0  0  0  0  0  0  0  0
    4.4399    1.5700    0.0000 H   0  0  0  0  0  0  0  0  0  0  0  0
    3.6569    3.3800    0.0000 H   0  0  0  0  0  0  0  0  0  0  0  0
    3.0369    4.0000    0.0000 H   0  0  0  0  0  0  0  0  0  0  0  0
    2.4169    3.3800    0.0000 H   0  0  0  0  0  0  0  0  0  0  0  0
    4.2130    2.4170    0.0000 H   0  0  0  0  0  0  0  0  0  0  0  0
    2.0000    0.2040    0.0000 H   0  0  0  0  0  0  0  0  0  0  0  0
    2.0000   -1.1760    0.0000 H   0  0  0  0  0  0  0  0  0  0  0  0
    5.4078   -0.5919    0.0000 H   0  0  0  0  0  0  0  0  0  0  0  0
    2.0000   -2.7960    0.0000 H   0  0  0  0  0  0  0  0  0  0  0  0
    3.4030   -3.6060    0.0000 H   0  0  0  0  0  0  0  0  0  0  0  0
    5.4078   -3.3800    0.0000 H   0  0  0  0  0  0  0  0  0  0  0  0
    6.4188   -1.9860    0.0000 H   0  0  0  0  0  0  0  0  0  0  0  0
  1  9  2  0  0  0  0
  2  5  1  0  0  0  0
  2  9  1  0  0  0  0
  2 27  1  0  0  0  0
  3 13  1  0  0  0  0
  3 17  1  0  0  0  0
  3 32  1  0  0  0  0
  4  5  1  0  0  0  0
  4  6  1  0  0  0  0
  4  7  1  0  0  0  0
  4  8  1  0  0  0  0
  5  6  1  0  0  0  0
  5 18  1  0  0  0  0
  6 19  1  0  0  0  0
  6 20  1  0  0  0  0
  7 23  1  0  0  0  0
  7 24  1  0  0  0  0
  7 25  1  0  0  0  0
  8 21  1  0  0  0  0
  8 22  1  0  0  0  0
  8 26  1  0  0  0  0
  9 10  1  0  0  0  0
 10 11  2  0  0  0  0
 10 12  1  0  0  0  0
 11 13  1  0  0  0  0
 11 14  1  0  0  0  0
 12 15  2  0  0  0  0
 12 28  1  0  0  0  0
 13 16  2  0  0  0  0
 14 17  2  0  0  0  0
 14 29  1  0  0  0  0
 15 16  1  0  0  0  0
 15 30  1  0  0  0  0
 16 31  1  0  0  0  0
 17 33  1  0  0  0  0
M  END
> <PUBCHEM_COMPOUND_CID>
61889653

> <PUBCHEM_COMPOUND_CANONICALIZED>
1

> <PUBCHEM_CACTVS_COMPLEXITY>
326

> <PUBCHEM_CACTVS_HBOND_ACCEPTOR>
1

> <PUBCHEM_CACTVS_HBOND_DONOR>
2

> <PUBCHEM_CACTVS_ROTATABLE_BOND>
2

> <PUBCHEM_CACTVS_SUBSKEYS>
AAADceBzIAAAAAAAAAAAAAAAGAAAAWAAAAAwAAAAAAAAAFgB8AAAHgAQAAAADijBngQ+wPLJkACoAzV3VACCgCA1AiAI2aE4ZNgIIPLAlZGEIQhglgDIyYcciYCOgAAAQAASAAAAAACAACQAAAAAAAAAAA==

> <PUBCHEM_IUPAC_OPENEYE_NAME>
N-(2,2-dimethylcyclopropyl)-1H-indole-4-carboxamide

> <PUBCHEM_IUPAC_CAS_NAME>
N-(2,2-dimethylcyclopropyl)-1H-indole-4-carboxamide

> <PUBCHEM_IUPAC_NAME>
N-(2,2-dimethylcyclopropyl)-1H-indole-4-carboxamide

> <PUBCHEM_IUPAC_SYSTEMATIC_NAME>
N-(2,2-dimethylcyclopropyl)-1H-indole-4-carboxamide

> <PUBCHEM_IUPAC_TRADITIONAL_NAME>
N-(2,2-dimethylcyclopropyl)-1H-indole-4-carboxamide

> <PUBCHEM_IUPAC_INCHI>
InChI=1S/C14H16N2O/c1-14(2)8-12(14)16-13(17)10-4-3-5-11-9(10)6-7-15-11/h3-7,12,15H,8H2,1-2H3,(H,16,17)

> <PUBCHEM_IUPAC_INCHIKEY>
ZFOXFYFIQKQMIZ-UHFFFAOYSA-N

> <PUBCHEM_XLOGP3>
2.4

> <PUBCHEM_EXACT_MASS>
228.126263

> <PUBCHEM_MOLECULAR_FORMULA>
C14H16N2O

> <PUBCHEM_MOLECULAR_WEIGHT>
228.28964

> <PUBCHEM_OPENEYE_CAN_SMILES>
CC1(CC1NC(=O)C2=C3C=CNC3=CC=C2)C

> <PUBCHEM_OPENEYE_ISO_SMILES>
CC1(CC1NC(=O)C2=C3C=CNC3=CC=C2)C

> <PUBCHEM_CACTVS_TPSA>
44.9

> <PUBCHEM_MONOISOTOPIC_WEIGHT>
228.126263

> <PUBCHEM_TOTAL_CHARGE>
0

> <PUBCHEM_HEAVY_ATOM_COUNT>
17

> <PUBCHEM_ATOM_DEF_STEREO_COUNT>
0

> <PUBCHEM_ATOM_UDEF_STEREO_COUNT>
1

> <PUBCHEM_BOND_DEF_STEREO_COUNT>
0

> <PUBCHEM_BOND_UDEF_STEREO_COUNT>
0

> <PUBCHEM_ISOTOPIC_ATOM_COUNT>
0

> <PUBCHEM_COMPONENT_COUNT>
1

> <PUBCHEM_CACTVS_TAUTO_COUNT>
5

> <PUBCHEM_COORDINATE_TYPE>
1
5
255

> <PUBCHEM_BONDANNOTATIONS>
10  11  8
10  12  8
11  13  8
11  14  8
12  15  8
13  16  8
14  17  8
15  16  8
5  2  3
3  13  8
3  17  8

$$$$
