28976545
  -OEChem-05181308032D

 21 22  0     0  0  0  0  0  0999 V2000
    2.0000    1.3100    0.0000 I   0  0  0  0  0  0  0  0  0  0  0  0
    5.4920   -0.7247    0.0000 N   0  0  0  0  0  0  0  0  0  0  0  0
    5.4920    1.3446    0.0000 C   0  0  0  0  0  0  0  0  0  0  0  0
    6.3981    0.8308    0.0000 C   0  0  0  0  0  0  0  0  0  0  0  0
    6.3981   -0.2108    0.0000 C   0  0  0  0  0  0  0  0  0  0  0  0
    4.5981    0.8100    0.0000 C   0  0  0  0  0  0  0  0  0  0  0  0
    4.5981   -0.1900    0.0000 C   0  0  0  0  0  0  0  0  0  0  0  0
    3.7320    1.3100    0.0000 C   0  0  0  0  0  0  0  0  0  0  0  0
    3.7320   -0.6900    0.0000 C   0  0  0  0  0  0  0  0  0  0  0  0
    2.8660    0.8100    0.0000 C   0  0  0  0  0  0  0  0  0  0  0  0
    2.8660   -0.1900    0.0000 C   0  0  0  0  0  0  0  0  0  0  0  0
    5.8856    1.8237    0.0000 H   0  0  0  0  0  0  0  0  0  0  0  0
    5.0874    1.8144    0.0000 H   0  0  0  0  0  0  0  0  0  0  0  0
    7.0089    0.7247    0.0000 H   0  0  0  0  0  0  0  0  0  0  0  0
    6.6071    1.4145    0.0000 H   0  0  0  0  0  0  0  0  0  0  0  0
    6.6071   -0.7945    0.0000 H   0  0  0  0  0  0  0  0  0  0  0  0
    7.0089   -0.1047    0.0000 H   0  0  0  0  0  0  0  0  0  0  0  0
    5.4848   -1.3446    0.0000 H   0  0  0  0  0  0  0  0  0  0  0  0
    3.7320    1.9300    0.0000 H   0  0  0  0  0  0  0  0  0  0  0  0
    3.7320   -1.3100    0.0000 H   0  0  0  0  0  0  0  0  0  0  0  0
    2.3291   -0.5000    0.0000 H   0  0  0  0  0  0  0  0  0  0  0  0
  1 10  1  0  0  0  0
  2  5  1  0  0  0  0
  2  7  1  0  0  0  0
  2 18  1  0  0  0  0
  3  4  1  0  0  0  0
  3  6  1  0  0  0  0
  3 12  1  0  0  0  0
  3 13  1  0  0  0  0
  4  5  1  0  0  0  0
  4 14  1  0  0  0  0
  4 15  1  0  0  0  0
  5 16  1  0  0  0  0
  5 17  1  0  0  0  0
  6  7  2  0  0  0  0
  6  8  1  0  0  0  0
  7  9  1  0  0  0  0
  8 10  2  0  0  0  0
  8 19  1  0  0  0  0
  9 11  2  0  0  0  0
  9 20  1  0  0  0  0
 10 11  1  0  0  0  0
 11 21  1  0  0  0  0
M  END
> <PUBCHEM_COMPOUND_CID>
28976545

> <PUBCHEM_COMPOUND_CANONICALIZED>
1

> <PUBCHEM_CACTVS_COMPLEXITY>
138

> <PUBCHEM_CACTVS_HBOND_ACCEPTOR>
1

> <PUBCHEM_CACTVS_HBOND_DONOR>
1

> <PUBCHEM_CACTVS_ROTATABLE_BOND>
0

> <PUBCHEM_CACTVS_SUBSKEYS>
AAADccByAAAAAgAAAAAAAAAAAAAAAAAAAAA8QAAAAAAAAACxAAAAHAAwAAAADAjDGAQwwILAAACAAiRCQACCAAAhAgAIiIAIZIgIICLAkZGEIAhgkADIyAcQgIAOAAAAAAACAAAAAAAAAAQAAAAAAAAAAA==

> <PUBCHEM_IUPAC_OPENEYE_NAME>
6-iodo-1,2,3,4-tetrahydroquinoline

> <PUBCHEM_IUPAC_CAS_NAME>
6-iodo-1,2,3,4-tetrahydroquinoline

> <PUBCHEM_IUPAC_NAME>
6-iodo-1,2,3,4-tetrahydroquinoline

> <PUBCHEM_IUPAC_SYSTEMATIC_NAME>
6-iodanyl-1,2,3,4-tetrahydroquinoline

> <PUBCHEM_IUPAC_TRADITIONAL_NAME>
6-iodo-1,2,3,4-tetrahydroquinoline

> <PUBCHEM_IUPAC_INCHI>
InChI=1S/C9H10IN/c10-8-3-4-9-7(6-8)2-1-5-11-9/h3-4,6,11H,1-2,5H2

> <PUBCHEM_IUPAC_INCHIKEY>
OJOGUQPNKCQMBI-UHFFFAOYSA-N

> <PUBCHEM_XLOGP3>
2.9

> <PUBCHEM_EXACT_MASS>
258.985797

> <PUBCHEM_MOLECULAR_FORMULA>
C9H10IN

> <PUBCHEM_MOLECULAR_WEIGHT>
259.08687

> <PUBCHEM_OPENEYE_CAN_SMILES>
C1CC2=C(C=CC(=C2)I)NC1

> <PUBCHEM_OPENEYE_ISO_SMILES>
C1CC2=C(C=CC(=C2)I)NC1

> <PUBCHEM_CACTVS_TPSA>
12

> <PUBCHEM_MONOISOTOPIC_WEIGHT>
258.985797

> <PUBCHEM_TOTAL_CHARGE>
0

> <PUBCHEM_HEAVY_ATOM_COUNT>
11

> <PUBCHEM_ATOM_DEF_STEREO_COUNT>
0

> <PUBCHEM_ATOM_UDEF_STEREO_COUNT>
0

> <PUBCHEM_BOND_DEF_STEREO_COUNT>
0

> <PUBCHEM_BOND_UDEF_STEREO_COUNT>
0

> <PUBCHEM_ISOTOPIC_ATOM_COUNT>
0

> <PUBCHEM_COMPONENT_COUNT>
1

> <PUBCHEM_CACTVS_TAUTO_COUNT>
1

> <PUBCHEM_COORDINATE_TYPE>
1
5
255

> <PUBCHEM_BONDANNOTATIONS>
10  11  8
6  7  8
6  8  8
7  9  8
8  10  8
9  11  8

$$$$
28977465
  -OEChem-05181308032D

 28 28  0     0  0  0  0  0  0999 V2000
    2.0000   -3.7500    0.0000 I   0  0  0  0  0  0  0  0  0  0  0  0
    6.3301    3.7500    0.0000 Cl  0  0  0  0  0  0  0  0  0  0  0  0
    5.4641   -0.7500    0.0000 O   0  0  0  0  0  0  0  0  0  0  0  0
    3.7320   -0.7500    0.0000 N   0  0  0  0  0  0  0  0  0  0  0  0
    5.4641    1.2500    0.0000 C   0  0  0  0  0  0  0  0  0  0  0  0
    4.5981    0.7500    0.0000 C   0  0  0  0  0  0  0  0  0  0  0  0
    5.4641    2.2500    0.0000 C   0  0  0  0  0  0  0  0  0  0  0  0
    4.5981   -0.2500    0.0000 C   0  0  0  0  0  0  0  0  0  0  0  0
    6.3301    2.7500    0.0000 C   0  0  0  0  0  0  0  0  0  0  0  0
    3.7320   -1.7500    0.0000 C   0  0  0  0  0  0  0  0  0  0  0  0
    2.8660   -2.2500    0.0000 C   0  0  0  0  0  0  0  0  0  0  0  0
    4.5981   -2.2500    0.0000 C   0  0  0  0  0  0  0  0  0  0  0  0
    2.8660   -3.2500    0.0000 C   0  0  0  0  0  0  0  0  0  0  0  0
    4.5981   -3.2500    0.0000 C   0  0  0  0  0  0  0  0  0  0  0  0
    3.7320   -3.7500    0.0000 C   0  0  0  0  0  0  0  0  0  0  0  0
    5.6762    0.6674    0.0000 H   0  0  0  0  0  0  0  0  0  0  0  0
    6.0747    1.3577    0.0000 H   0  0  0  0  0  0  0  0  0  0  0  0
    4.3860    1.3326    0.0000 H   0  0  0  0  0  0  0  0  0  0  0  0
    3.9875    0.6423    0.0000 H   0  0  0  0  0  0  0  0  0  0  0  0
    5.2520    2.8326    0.0000 H   0  0  0  0  0  0  0  0  0  0  0  0
    4.8535    2.1423    0.0000 H   0  0  0  0  0  0  0  0  0  0  0  0
    6.5422    2.1674    0.0000 H   0  0  0  0  0  0  0  0  0  0  0  0
    6.9407    2.8577    0.0000 H   0  0  0  0  0  0  0  0  0  0  0  0
    3.1951   -0.4400    0.0000 H   0  0  0  0  0  0  0  0  0  0  0  0
    2.3291   -1.9400    0.0000 H   0  0  0  0  0  0  0  0  0  0  0  0
    5.1350   -1.9400    0.0000 H   0  0  0  0  0  0  0  0  0  0  0  0
    5.1350   -3.5600    0.0000 H   0  0  0  0  0  0  0  0  0  0  0  0
    3.7320   -4.3700    0.0000 H   0  0  0  0  0  0  0  0  0  0  0  0
  1 13  1  0  0  0  0
  2  9  1  0  0  0  0
  3  8  2  0  0  0  0
  4  8  1  0  0  0  0
  4 10  1  0  0  0  0
  4 24  1  0  0  0  0
  5  6  1  0  0  0  0
  5  7  1  0  0  0  0
  5 16  1  0  0  0  0
  5 17  1  0  0  0  0
  6  8  1  0  0  0  0
  6 18  1  0  0  0  0
  6 19  1  0  0  0  0
  7  9  1  0  0  0  0
  7 20  1  0  0  0  0
  7 21  1  0  0  0  0
  9 22  1  0  0  0  0
  9 23  1  0  0  0  0
 10 11  2  0  0  0  0
 10 12  1  0  0  0  0
 11 13  1  0  0  0  0
 11 25  1  0  0  0  0
 12 14  2  0  0  0  0
 12 26  1  0  0  0  0
 13 15  2  0  0  0  0
 14 15  1  0  0  0  0
 14 27  1  0  0  0  0
 15 28  1  0  0  0  0
M  END
> <PUBCHEM_COMPOUND_CID>
28977465

> <PUBCHEM_COMPOUND_CANONICALIZED>
1

> <PUBCHEM_CACTVS_COMPLEXITY>
201

> <PUBCHEM_CACTVS_HBOND_ACCEPTOR>
1

> <PUBCHEM_CACTVS_HBOND_DONOR>
1

> <PUBCHEM_CACTVS_ROTATABLE_BOND>
5

> <PUBCHEM_CACTVS_SUBSKEYS>
AAADccByIAAEAgAAAAAAAAAAAAAAAAAAAAAwAAAAAAAAAAABAAAAHgIwAAAACAuDkEAwwILAAACIACVSUACCAAAhAgAIiAEAZogIIDLBkZGEIAhglADIyAcYAAAAAAAAAAAAAAAAAAAAAAAAAAAAAAAAAA==

> <PUBCHEM_IUPAC_OPENEYE_NAME>
5-chloro-N-(3-iodophenyl)pentanamide

> <PUBCHEM_IUPAC_CAS_NAME>
5-chloro-N-(3-iodophenyl)pentanamide

> <PUBCHEM_IUPAC_NAME>
5-chloro-N-(3-iodophenyl)pentanamide

> <PUBCHEM_IUPAC_SYSTEMATIC_NAME>
5-chloranyl-N-(3-iodanylphenyl)pentanamide

> <PUBCHEM_IUPAC_TRADITIONAL_NAME>
5-chloro-N-(3-iodophenyl)valeramide

> <PUBCHEM_IUPAC_INCHI>
InChI=1S/C11H13ClINO/c12-7-2-1-6-11(15)14-10-5-3-4-9(13)8-10/h3-5,8H,1-2,6-7H2,(H,14,15)

> <PUBCHEM_IUPAC_INCHIKEY>
JEEXYPNDTHMDEZ-UHFFFAOYSA-N

> <PUBCHEM_XLOGP3>
3.9

> <PUBCHEM_EXACT_MASS>
336.97304

> <PUBCHEM_MOLECULAR_FORMULA>
C11H13ClINO

> <PUBCHEM_MOLECULAR_WEIGHT>
337.58449

> <PUBCHEM_OPENEYE_CAN_SMILES>
C1=CC(=CC(=C1)I)NC(=O)CCCCCl

> <PUBCHEM_OPENEYE_ISO_SMILES>
C1=CC(=CC(=C1)I)NC(=O)CCCCCl

> <PUBCHEM_CACTVS_TPSA>
29.1

> <PUBCHEM_MONOISOTOPIC_WEIGHT>
336.97304

> <PUBCHEM_TOTAL_CHARGE>
0

> <PUBCHEM_HEAVY_ATOM_COUNT>
15

> <PUBCHEM_ATOM_DEF_STEREO_COUNT>
0

> <PUBCHEM_ATOM_UDEF_STEREO_COUNT>
0

> <PUBCHEM_BOND_DEF_STEREO_COUNT>
0

> <PUBCHEM_BOND_UDEF_STEREO_COUNT>
0

> <PUBCHEM_ISOTOPIC_ATOM_COUNT>
0

> <PUBCHEM_COMPONENT_COUNT>
1

> <PUBCHEM_CACTVS_TAUTO_COUNT>
3

> <PUBCHEM_COORDINATE_TYPE>
1
5
255

> <PUBCHEM_BONDANNOTATIONS>
10  11  8
10  12  8
11  13  8
12  14  8
13  15  8
14  15  8

$$$$
28977468
  -OEChem-05181308032D

 22 22  0     0  0  0  0  0  0999 V2000
    2.0000   -3.0000    0.0000 I   0  0  0  0  0  0  0  0  0  0  0  0
    5.4641    3.0000    0.0000 Cl  0  0  0  0  0  0  0  0  0  0  0  0
    5.4641    0.0000    0.0000 O   0  0  0  0  0  0  0  0  0  0  0  0
    3.7320    0.0000    0.0000 N   0  0  0  0  0  0  0  0  0  0  0  0
    3.7320   -1.0000    0.0000 C   0  0  0  0  0  0  0  0  0  0  0  0
    4.5981    1.5000    0.0000 C   0  0  0  0  0  0  0  0  0  0  0  0
    4.5981    0.5000    0.0000 C   0  0  0  0  0  0  0  0  0  0  0  0
    2.8660   -1.5000    0.0000 C   0  0  0  0  0  0  0  0  0  0  0  0
    4.5981   -1.5000    0.0000 C   0  0  0  0  0  0  0  0  0  0  0  0
    5.4641    2.0000    0.0000 C   0  0  0  0  0  0  0  0  0  0  0  0
    2.8660   -2.5000    0.0000 C   0  0  0  0  0  0  0  0  0  0  0  0
    4.5981   -2.5000    0.0000 C   0  0  0  0  0  0  0  0  0  0  0  0
    3.7320   -3.0000    0.0000 C   0  0  0  0  0  0  0  0  0  0  0  0
    4.3860    2.0826    0.0000 H   0  0  0  0  0  0  0  0  0  0  0  0
    3.9875    1.3923    0.0000 H   0  0  0  0  0  0  0  0  0  0  0  0
    3.1951    0.3100    0.0000 H   0  0  0  0  0  0  0  0  0  0  0  0
    2.3291   -1.1900    0.0000 H   0  0  0  0  0  0  0  0  0  0  0  0
    5.1350   -1.1900    0.0000 H   0  0  0  0  0  0  0  0  0  0  0  0
    5.6762    1.4174    0.0000 H   0  0  0  0  0  0  0  0  0  0  0  0
    6.0747    2.1077    0.0000 H   0  0  0  0  0  0  0  0  0  0  0  0
    5.1350   -2.8100    0.0000 H   0  0  0  0  0  0  0  0  0  0  0  0
    3.7320   -3.6200    0.0000 H   0  0  0  0  0  0  0  0  0  0  0  0
  1 11  1  0  0  0  0
  2 10  1  0  0  0  0
  3  7  2  0  0  0  0
  4  5  1  0  0  0  0
  4  7  1  0  0  0  0
  4 16  1  0  0  0  0
  5  8  2  0  0  0  0
  5  9  1  0  0  0  0
  6  7  1  0  0  0  0
  6 10  1  0  0  0  0
  6 14  1  0  0  0  0
  6 15  1  0  0  0  0
  8 11  1  0  0  0  0
  8 17  1  0  0  0  0
  9 12  2  0  0  0  0
  9 18  1  0  0  0  0
 10 19  1  0  0  0  0
 10 20  1  0  0  0  0
 11 13  2  0  0  0  0
 12 13  1  0  0  0  0
 12 21  1  0  0  0  0
 13 22  1  0  0  0  0
M  END
> <PUBCHEM_COMPOUND_CID>
28977468

> <PUBCHEM_COMPOUND_CANONICALIZED>
1

> <PUBCHEM_CACTVS_COMPLEXITY>
177

> <PUBCHEM_CACTVS_HBOND_ACCEPTOR>
1

> <PUBCHEM_CACTVS_HBOND_DONOR>
1

> <PUBCHEM_CACTVS_ROTATABLE_BOND>
3

> <PUBCHEM_CACTVS_SUBSKEYS>
AAADccByIAAEAgAAAAAAAAAAAAAAAAAAAAAwAAAAAAAAAAABAAAAHgIwAAAACAuDkEAwwILAAACIACVSUACCAAAhAgAIiAEAZogIICLAkZGEIAhglADIyAcQAAAAAAAAAAAAAAAAAAAAAAAAAAAAAAAAAA==

> <PUBCHEM_IUPAC_OPENEYE_NAME>
3-chloro-N-(3-iodophenyl)propanamide

> <PUBCHEM_IUPAC_CAS_NAME>
3-chloro-N-(3-iodophenyl)propanamide

> <PUBCHEM_IUPAC_NAME>
3-chloro-N-(3-iodophenyl)propanamide

> <PUBCHEM_IUPAC_SYSTEMATIC_NAME>
3-chloranyl-N-(3-iodanylphenyl)propanamide

> <PUBCHEM_IUPAC_TRADITIONAL_NAME>
3-chloro-N-(3-iodophenyl)propionamide

> <PUBCHEM_IUPAC_INCHI>
InChI=1S/C9H9ClINO/c10-5-4-9(13)12-8-3-1-2-7(11)6-8/h1-3,6H,4-5H2,(H,12,13)

> <PUBCHEM_IUPAC_INCHIKEY>
AQDIALWKQPEWBZ-UHFFFAOYSA-N

> <PUBCHEM_XLOGP3>
3.2

> <PUBCHEM_EXACT_MASS>
308.94174

> <PUBCHEM_MOLECULAR_FORMULA>
C9H9ClINO

> <PUBCHEM_MOLECULAR_WEIGHT>
309.53133

> <PUBCHEM_OPENEYE_CAN_SMILES>
C1=CC(=CC(=C1)I)NC(=O)CCCl

> <PUBCHEM_OPENEYE_ISO_SMILES>
C1=CC(=CC(=C1)I)NC(=O)CCCl

> <PUBCHEM_CACTVS_TPSA>
29.1

> <PUBCHEM_MONOISOTOPIC_WEIGHT>
308.94174

> <PUBCHEM_TOTAL_CHARGE>
0

> <PUBCHEM_HEAVY_ATOM_COUNT>
13

> <PUBCHEM_ATOM_DEF_STEREO_COUNT>
0

> <PUBCHEM_ATOM_UDEF_STEREO_COUNT>
0

> <PUBCHEM_BOND_DEF_STEREO_COUNT>
0

> <PUBCHEM_BOND_UDEF_STEREO_COUNT>
0

> <PUBCHEM_ISOTOPIC_ATOM_COUNT>
0

> <PUBCHEM_COMPONENT_COUNT>
1

> <PUBCHEM_CACTVS_TAUTO_COUNT>
3

> <PUBCHEM_COORDINATE_TYPE>
1
5
255

> <PUBCHEM_BONDANNOTATIONS>
11  13  8
12  13  8
5  8  8
5  9  8
8  11  8
9  12  8

$$$$
28977469
  -OEChem-05181308032D

 28 28  0     0  0  0  0  0  0999 V2000
    2.0000   -1.7500    0.0000 I   0  0  0  0  0  0  0  0  0  0  0  0
    6.3301    3.7500    0.0000 Cl  0  0  0  0  0  0  0  0  0  0  0  0
    5.4641   -0.7500    0.0000 O   0  0  0  0  0  0  0  0  0  0  0  0
    3.7320   -0.7500    0.0000 N   0  0  0  0  0  0  0  0  0  0  0  0
    5.4641    1.2500    0.0000 C   0  0  0  0  0  0  0  0  0  0  0  0
    4.5981    0.7500    0.0000 C   0  0  0  0  0  0  0  0  0  0  0  0
    5.4641    2.2500    0.0000 C   0  0  0  0  0  0  0  0  0  0  0  0
    4.5981   -0.2500    0.0000 C   0  0  0  0  0  0  0  0  0  0  0  0
    6.3301    2.7500    0.0000 C   0  0  0  0  0  0  0  0  0  0  0  0
    3.7320   -1.7500    0.0000 C   0  0  0  0  0  0  0  0  0  0  0  0
    2.8660   -2.2500    0.0000 C   0  0  0  0  0  0  0  0  0  0  0  0
    4.5981   -2.2500    0.0000 C   0  0  0  0  0  0  0  0  0  0  0  0
    2.8660   -3.2500    0.0000 C   0  0  0  0  0  0  0  0  0  0  0  0
    4.5981   -3.2500    0.0000 C   0  0  0  0  0  0  0  0  0  0  0  0
    3.7320   -3.7500    0.0000 C   0  0  0  0  0  0  0  0  0  0  0  0
    5.6762    0.6674    0.0000 H   0  0  0  0  0  0  0  0  0  0  0  0
    6.0747    1.3577    0.0000 H   0  0  0  0  0  0  0  0  0  0  0  0
    4.3860    1.3326    0.0000 H   0  0  0  0  0  0  0  0  0  0  0  0
    3.9875    0.6423    0.0000 H   0  0  0  0  0  0  0  0  0  0  0  0
    5.2520    2.8326    0.0000 H   0  0  0  0  0  0  0  0  0  0  0  0
    4.8535    2.1423    0.0000 H   0  0  0  0  0  0  0  0  0  0  0  0
    6.5422    2.1674    0.0000 H   0  0  0  0  0  0  0  0  0  0  0  0
    6.9407    2.8577    0.0000 H   0  0  0  0  0  0  0  0  0  0  0  0
    3.1951   -0.4400    0.0000 H   0  0  0  0  0  0  0  0  0  0  0  0
    5.1350   -1.9400    0.0000 H   0  0  0  0  0  0  0  0  0  0  0  0
    2.3291   -3.5600    0.0000 H   0  0  0  0  0  0  0  0  0  0  0  0
    5.1350   -3.5600    0.0000 H   0  0  0  0  0  0  0  0  0  0  0  0
    3.7320   -4.3700    0.0000 H   0  0  0  0  0  0  0  0  0  0  0  0
  1 11  1  0  0  0  0
  2  9  1  0  0  0  0
  3  8  2  0  0  0  0
  4  8  1  0  0  0  0
  4 10  1  0  0  0  0
  4 24  1  0  0  0  0
  5  6  1  0  0  0  0
  5  7  1  0  0  0  0
  5 16  1  0  0  0  0
  5 17  1  0  0  0  0
  6  8  1  0  0  0  0
  6 18  1  0  0  0  0
  6 19  1  0  0  0  0
  7  9  1  0  0  0  0
  7 20  1  0  0  0  0
  7 21  1  0  0  0  0
  9 22  1  0  0  0  0
  9 23  1  0  0  0  0
 10 11  1  0  0  0  0
 10 12  2  0  0  0  0
 11 13  2  0  0  0  0
 12 14  1  0  0  0  0
 12 25  1  0  0  0  0
 13 15  1  0  0  0  0
 13 26  1  0  0  0  0
 14 15  2  0  0  0  0
 14 27  1  0  0  0  0
 15 28  1  0  0  0  0
M  END
> <PUBCHEM_COMPOUND_CID>
28977469

> <PUBCHEM_COMPOUND_CANONICALIZED>
1

> <PUBCHEM_CACTVS_COMPLEXITY>
201

> <PUBCHEM_CACTVS_HBOND_ACCEPTOR>
1

> <PUBCHEM_CACTVS_HBOND_DONOR>
1

> <PUBCHEM_CACTVS_ROTATABLE_BOND>
5

> <PUBCHEM_CACTVS_SUBSKEYS>
AAADccByIAAEAgAAAAAAAAAAAAAAAAAAAAAwAAAAAAAAAAABAAAAHgIwAAAACAuDkEAwwILAAACIACVSUACCAAAhAgAIiAEAZogIIDLBkZGEIAhglADIyAcYAAAAAAAAAAAAAAAAAAAAAAAAAAAAAAAAAA==

> <PUBCHEM_IUPAC_OPENEYE_NAME>
5-chloro-N-(2-iodophenyl)pentanamide

> <PUBCHEM_IUPAC_CAS_NAME>
5-chloro-N-(2-iodophenyl)pentanamide

> <PUBCHEM_IUPAC_NAME>
5-chloro-N-(2-iodophenyl)pentanamide

> <PUBCHEM_IUPAC_SYSTEMATIC_NAME>
5-chloranyl-N-(2-iodanylphenyl)pentanamide

> <PUBCHEM_IUPAC_TRADITIONAL_NAME>
5-chloro-N-(2-iodophenyl)valeramide

> <PUBCHEM_IUPAC_INCHI>
InChI=1S/C11H13ClINO/c12-8-4-3-7-11(15)14-10-6-2-1-5-9(10)13/h1-2,5-6H,3-4,7-8H2,(H,14,15)

> <PUBCHEM_IUPAC_INCHIKEY>
NPUVWCSHDGCTMN-UHFFFAOYSA-N

> <PUBCHEM_XLOGP3>
2.8

> <PUBCHEM_EXACT_MASS>
336.97304

> <PUBCHEM_MOLECULAR_FORMULA>
C11H13ClINO

> <PUBCHEM_MOLECULAR_WEIGHT>
337.58449

> <PUBCHEM_OPENEYE_CAN_SMILES>
C1=CC=C(C(=C1)NC(=O)CCCCCl)I

> <PUBCHEM_OPENEYE_ISO_SMILES>
C1=CC=C(C(=C1)NC(=O)CCCCCl)I

> <PUBCHEM_CACTVS_TPSA>
29.1

> <PUBCHEM_MONOISOTOPIC_WEIGHT>
336.97304

> <PUBCHEM_TOTAL_CHARGE>
0

> <PUBCHEM_HEAVY_ATOM_COUNT>
15

> <PUBCHEM_ATOM_DEF_STEREO_COUNT>
0

> <PUBCHEM_ATOM_UDEF_STEREO_COUNT>
0

> <PUBCHEM_BOND_DEF_STEREO_COUNT>
0

> <PUBCHEM_BOND_UDEF_STEREO_COUNT>
0

> <PUBCHEM_ISOTOPIC_ATOM_COUNT>
0

> <PUBCHEM_COMPONENT_COUNT>
1

> <PUBCHEM_CACTVS_TAUTO_COUNT>
3

> <PUBCHEM_COORDINATE_TYPE>
1
5
255

> <PUBCHEM_BONDANNOTATIONS>
10  11  8
10  12  8
11  13  8
12  14  8
13  15  8
14  15  8

$$$$
28994776
  -OEChem-05181308032D

 31 31  0     0  0  0  0  0  0999 V2000
    5.1350    0.8170    0.0000 O   0  0  0  0  0  0  0  0  0  0  0  0
    2.5369   -0.6830    0.0000 N   0  3  0  0  0  0  0  0  0  0  0  0
    6.0010    1.3170    0.0000 C   0  0  0  0  0  0  0  0  0  0  0  0
    6.8671    1.8170    0.0000 C   0  0  0  0  0  0  0  0  0  0  0  0
    5.5010    2.1830    0.0000 C   0  0  0  0  0  0  0  0  0  0  0  0
    6.5010    0.4510    0.0000 C   0  0  0  0  0  0  0  0  0  0  0  0
    5.1350   -0.1830    0.0000 C   0  0  0  0  0  0  0  0  0  0  0  0
    4.2690   -0.6830    0.0000 C   0  0  0  0  0  0  0  0  0  0  0  0
    3.4030   -0.1830    0.0000 C   0  0  0  0  0  0  0  0  0  0  0  0
    6.0010   -0.6830    0.0000 C   0  0  0  0  0  0  0  0  0  0  0  0
    4.2690   -1.6830    0.0000 C   0  0  0  0  0  0  0  0  0  0  0  0
    6.0010   -1.6830    0.0000 C   0  0  0  0  0  0  0  0  0  0  0  0
    5.1350   -2.1830    0.0000 C   0  0  0  0  0  0  0  0  0  0  0  0
    6.0380    2.4930    0.0000 H   0  0  0  0  0  0  0  0  0  0  0  0
    5.1910    2.7200    0.0000 H   0  0  0  0  0  0  0  0  0  0  0  0
    4.9641    1.8730    0.0000 H   0  0  0  0  0  0  0  0  0  0  0  0
    5.9641    0.1410    0.0000 H   0  0  0  0  0  0  0  0  0  0  0  0
    6.8110   -0.0860    0.0000 H   0  0  0  0  0  0  0  0  0  0  0  0
    7.0380    0.7610    0.0000 H   0  0  0  0  0  0  0  0  0  0  0  0
    7.1771    1.2800    0.0000 H   0  0  0  0  0  0  0  0  0  0  0  0
    7.4040    2.1270    0.0000 H   0  0  0  0  0  0  0  0  0  0  0  0
    6.5571    2.3539    0.0000 H   0  0  0  0  0  0  0  0  0  0  0  0
    3.8015    0.2919    0.0000 H   0  0  0  0  0  0  0  0  0  0  0  0
    3.0044    0.2919    0.0000 H   0  0  0  0  0  0  0  0  0  0  0  0
    6.5380   -0.3730    0.0000 H   0  0  0  0  0  0  0  0  0  0  0  0
    3.7320   -1.9930    0.0000 H   0  0  0  0  0  0  0  0  0  0  0  0
    2.0000   -0.9930    0.0000 H   0  0  0  0  0  0  0  0  0  0  0  0
    2.2269   -0.1461    0.0000 H   0  0  0  0  0  0  0  0  0  0  0  0
    2.8469   -1.2200    0.0000 H   0  0  0  0  0  0  0  0  0  0  0  0
    6.5380   -1.9930    0.0000 H   0  0  0  0  0  0  0  0  0  0  0  0
    5.1350   -2.8030    0.0000 H   0  0  0  0  0  0  0  0  0  0  0  0
  1  3  1  0  0  0  0
  1  7  1  0  0  0  0
  2  9  1  0  0  0  0
  2 27  1  0  0  0  0
  2 28  1  0  0  0  0
  2 29  1  0  0  0  0
  3  4  1  0  0  0  0
  3  5  1  0  0  0  0
  3  6  1  0  0  0  0
  4 20  1  0  0  0  0
  4 21  1  0  0  0  0
  4 22  1  0  0  0  0
  5 14  1  0  0  0  0
  5 15  1  0  0  0  0
  5 16  1  0  0  0  0
  6 17  1  0  0  0  0
  6 18  1  0  0  0  0
  6 19  1  0  0  0  0
  7  8  1  0  0  0  0
  7 10  2  0  0  0  0
  8  9  1  0  0  0  0
  8 11  2  0  0  0  0
  9 23  1  0  0  0  0
  9 24  1  0  0  0  0
 10 12  1  0  0  0  0
 10 25  1  0  0  0  0
 11 13  1  0  0  0  0
 11 26  1  0  0  0  0
 12 13  2  0  0  0  0
 12 30  1  0  0  0  0
 13 31  1  0  0  0  0
M  CHG  1   2   1
M  END
> <PUBCHEM_COMPOUND_CID>
28994776

> <PUBCHEM_COMPOUND_CANONICALIZED>
1

> <PUBCHEM_CACTVS_COMPLEXITY>
151

> <PUBCHEM_CACTVS_HBOND_ACCEPTOR>
1

> <PUBCHEM_CACTVS_HBOND_DONOR>
1

> <PUBCHEM_CACTVS_ROTATABLE_BOND>
3

> <PUBCHEM_CACTVS_SUBSKEYS>
AAADceByIAAAAAAAAAAAAAAAAAAAAAAAAAAwAAAAAAAAAAABAAAAHgAQAAAADETBmAQyBoBABACAAiBCAACCCAAgIAAIiIAGDIgMJiKEsRuCOCDmwBEIqAeQwCAOAAAAAAAIAAAAAAAAABAAAAAAAAAAAA==

> <PUBCHEM_IUPAC_OPENEYE_NAME>
(2-tert-butoxyphenyl)methylammonium

> <PUBCHEM_IUPAC_CAS_NAME>
[2-[(2-methylpropan-2-yl)oxy]phenyl]methylammonium

> <PUBCHEM_IUPAC_NAME>
[2-[(2-methylpropan-2-yl)oxy]phenyl]methylazanium

> <PUBCHEM_IUPAC_SYSTEMATIC_NAME>
[2-[(2-methylpropan-2-yl)oxy]phenyl]methylazanium

> <PUBCHEM_IUPAC_TRADITIONAL_NAME>
(2-tert-butoxybenzyl)ammonium

> <PUBCHEM_IUPAC_INCHI>
InChI=1S/C11H17NO/c1-11(2,3)13-10-7-5-4-6-9(10)8-12/h4-7H,8,12H2,1-3H3/p+1

> <PUBCHEM_IUPAC_INCHIKEY>
IIDFZEBQIQFAQR-UHFFFAOYSA-O

> <PUBCHEM_XLOGP3>
1.9

> <PUBCHEM_EXACT_MASS>
180.138839

> <PUBCHEM_MOLECULAR_FORMULA>
C11H18NO+

> <PUBCHEM_MOLECULAR_WEIGHT>
180.26672

> <PUBCHEM_OPENEYE_CAN_SMILES>
CC(C)(C)OC1=CC=CC=C1C[NH3+]

> <PUBCHEM_OPENEYE_ISO_SMILES>
CC(C)(C)OC1=CC=CC=C1C[NH3+]

> <PUBCHEM_CACTVS_TPSA>
36.9

> <PUBCHEM_MONOISOTOPIC_WEIGHT>
180.138839

> <PUBCHEM_TOTAL_CHARGE>
1

> <PUBCHEM_HEAVY_ATOM_COUNT>
13

> <PUBCHEM_ATOM_DEF_STEREO_COUNT>
0

> <PUBCHEM_ATOM_UDEF_STEREO_COUNT>
0

> <PUBCHEM_BOND_DEF_STEREO_COUNT>
0

> <PUBCHEM_BOND_UDEF_STEREO_COUNT>
0

> <PUBCHEM_ISOTOPIC_ATOM_COUNT>
0

> <PUBCHEM_COMPONENT_COUNT>
1

> <PUBCHEM_CACTVS_TAUTO_COUNT>
1

> <PUBCHEM_COORDINATE_TYPE>
1
5
255

> <PUBCHEM_BONDANNOTATIONS>
10  12  8
11  13  8
12  13  8
7  10  8
7  8  8
8  11  8

$$$$
