40191805
  -OEChem-11301217472D

 33 35  0     1  0  0  0  0  0999 V2000
    7.6717    3.6959    0.0000 Cl  0  0  0  0  0  0  0  0  0  0  0  0
    6.3825    2.5392    0.0000 Cl  0  0  0  0  0  0  0  0  0  0  0  0
    7.9244    0.0721    0.0000 O   0  0  0  0  0  0  0  0  0  0  0  0
    6.2781    0.6101    0.0000 N   0  0  0  0  0  0  0  0  0  0  0  0
    4.6783   -3.1066    0.0000 N   0  0  0  0  0  0  0  0  0  0  0  0
    7.5673    1.7669    0.0000 C   0  0  2  0  0  0  0  0  0  0  0  0
    7.3610    2.7454    0.0000 C   0  0  0  0  0  0  0  0  0  0  0  0
    8.3116    2.4347    0.0000 C   0  0  0  0  0  0  0  0  0  0  0  0
    7.2566    0.8164    0.0000 C   0  0  0  0  0  0  0  0  0  0  0  0
    5.9674   -0.3404    0.0000 C   0  0  0  0  0  0  0  0  0  0  0  0
    4.9889   -0.5466    0.0000 C   0  0  0  0  0  0  0  0  0  0  0  0
    4.6783   -1.4971    0.0000 C   0  0  0  0  0  0  0  0  0  0  0  0
    3.7320   -1.8018    0.0000 C   0  0  0  0  0  0  0  0  0  0  0  0
    3.7320   -2.8018    0.0000 C   0  0  0  0  0  0  0  0  0  0  0  0
    5.2619   -2.3018    0.0000 C   0  0  0  0  0  0  0  0  0  0  0  0
    2.8660   -1.3018    0.0000 C   0  0  0  0  0  0  0  0  0  0  0  0
    2.8660   -3.3018    0.0000 C   0  0  0  0  0  0  0  0  0  0  0  0
    2.0000   -1.8018    0.0000 C   0  0  0  0  0  0  0  0  0  0  0  0
    2.0000   -2.8018    0.0000 C   0  0  0  0  0  0  0  0  0  0  0  0
    6.9482    1.8004    0.0000 H   0  0  0  0  0  0  0  0  0  0  0  0
    8.7995    2.0522    0.0000 H   0  0  0  0  0  0  0  0  0  0  0  0
    8.6036    2.9816    0.0000 H   0  0  0  0  0  0  0  0  0  0  0  0
    5.8640    1.0716    0.0000 H   0  0  0  0  0  0  0  0  0  0  0  0
    5.9880   -0.9600    0.0000 H   0  0  0  0  0  0  0  0  0  0  0  0
    6.5812   -0.4277    0.0000 H   0  0  0  0  0  0  0  0  0  0  0  0
    4.9684    0.0731    0.0000 H   0  0  0  0  0  0  0  0  0  0  0  0
    4.3751   -0.4592    0.0000 H   0  0  0  0  0  0  0  0  0  0  0  0
    5.8819   -2.3018    0.0000 H   0  0  0  0  0  0  0  0  0  0  0  0
    4.8709   -3.6959    0.0000 H   0  0  0  0  0  0  0  0  0  0  0  0
    2.8660   -0.6819    0.0000 H   0  0  0  0  0  0  0  0  0  0  0  0
    2.8660   -3.9218    0.0000 H   0  0  0  0  0  0  0  0  0  0  0  0
    1.4631   -1.4918    0.0000 H   0  0  0  0  0  0  0  0  0  0  0  0
    1.4631   -3.1118    0.0000 H   0  0  0  0  0  0  0  0  0  0  0  0
  1  7  1  0  0  0  0
  2  7  1  0  0  0  0
  3  9  2  0  0  0  0
  4  9  1  0  0  0  0
  4 10  1  0  0  0  0
  4 23  1  0  0  0  0
  5 14  1  0  0  0  0
  5 15  1  0  0  0  0
  5 29  1  0  0  0  0
  6  7  1  0  0  0  0
  6  8  1  0  0  0  0
  6  9  1  6  0  0  0
  6 20  1  0  0  0  0
  7  8  1  0  0  0  0
  8 21  1  0  0  0  0
  8 22  1  0  0  0  0
 10 11  1  0  0  0  0
 10 24  1  0  0  0  0
 10 25  1  0  0  0  0
 11 12  1  0  0  0  0
 11 26  1  0  0  0  0
 11 27  1  0  0  0  0
 12 13  1  0  0  0  0
 12 15  2  0  0  0  0
 13 14  1  0  0  0  0
 13 16  2  0  0  0  0
 14 17  2  0  0  0  0
 15 28  1  0  0  0  0
 16 18  1  0  0  0  0
 16 30  1  0  0  0  0
 17 19  1  0  0  0  0
 17 31  1  0  0  0  0
 18 19  2  0  0  0  0
 18 32  1  0  0  0  0
 19 33  1  0  0  0  0
M  END
> <PUBCHEM_COMPOUND_CID>
40191805

> <PUBCHEM_COMPOUND_CANONICALIZED>
1

> <PUBCHEM_CACTVS_COMPLEXITY>
361

> <PUBCHEM_CACTVS_HBOND_ACCEPTOR>
1

> <PUBCHEM_CACTVS_HBOND_DONOR>
2

> <PUBCHEM_CACTVS_ROTATABLE_BOND>
4

> <PUBCHEM_CACTVS_SUBSKEYS>
AAADccBzIAAGAAAAAAAAAAAAGAAAAWAAAAAwAAAAAAAAAFgB8AAAHgIQAAAADQrBnoQ8wPLJkACoAzV3VACCgCAxAiAI2aE4ZpgIIPLBkZGEIAhglgDIyAcQgMAOgAAAAAACAAAAAAAAAAQAAAAAAAAAAA==

> <PUBCHEM_IUPAC_OPENEYE_NAME>
(1R)-2,2-dichloro-N-[2-(1H-indol-3-yl)ethyl]cyclopropanecarboxamide

> <PUBCHEM_IUPAC_CAS_NAME>
(1R)-2,2-dichloro-N-[2-(1H-indol-3-yl)ethyl]-1-cyclopropanecarboxamide

> <PUBCHEM_IUPAC_NAME>
(1R)-2,2-dichloro-N-[2-(1H-indol-3-yl)ethyl]cyclopropane-1-carboxamide

> <PUBCHEM_IUPAC_SYSTEMATIC_NAME>
(1R)-2,2-bis(chloranyl)-N-[2-(1H-indol-3-yl)ethyl]cyclopropane-1-carboxamide

> <PUBCHEM_IUPAC_TRADITIONAL_NAME>
(1R)-2,2-dichloro-N-[2-(1H-indol-3-yl)ethyl]cyclopropanecarboxamide

> <PUBCHEM_IUPAC_INCHI>
InChI=1S/C14H14Cl2N2O/c15-14(16)7-11(14)13(19)17-6-5-9-8-18-12-4-2-1-3-10(9)12/h1-4,8,11,18H,5-7H2,(H,17,19)/t11-/m1/s1

> <PUBCHEM_IUPAC_INCHIKEY>
ANYUMJRKNYJVSY-LLVKDONJSA-N

> <PUBCHEM_XLOGP3>
3.1

> <PUBCHEM_EXACT_MASS>
296.048318

> <PUBCHEM_MOLECULAR_FORMULA>
C14H14Cl2N2O

> <PUBCHEM_MOLECULAR_WEIGHT>
297.17976

> <PUBCHEM_OPENEYE_CAN_SMILES>
C1C(C1(Cl)Cl)C(=O)NCCC2=CNC3=CC=CC=C32

> <PUBCHEM_OPENEYE_ISO_SMILES>
C1[C@@H](C1(Cl)Cl)C(=O)NCCC2=CNC3=CC=CC=C32

> <PUBCHEM_CACTVS_TPSA>
44.9

> <PUBCHEM_MONOISOTOPIC_WEIGHT>
296.048318

> <PUBCHEM_TOTAL_CHARGE>
0

> <PUBCHEM_HEAVY_ATOM_COUNT>
19

> <PUBCHEM_ATOM_DEF_STEREO_COUNT>
1

> <PUBCHEM_ATOM_UDEF_STEREO_COUNT>
0

> <PUBCHEM_BOND_DEF_STEREO_COUNT>
0

> <PUBCHEM_BOND_UDEF_STEREO_COUNT>
0

> <PUBCHEM_ISOTOPIC_ATOM_COUNT>
0

> <PUBCHEM_COMPONENT_COUNT>
1

> <PUBCHEM_CACTVS_TAUTO_COUNT>
2

> <PUBCHEM_COORDINATE_TYPE>
1
5
255

> <PUBCHEM_BONDANNOTATIONS>
12  13  8
12  15  8
13  14  8
13  16  8
14  17  8
16  18  8
17  19  8
18  19  8
5  14  8
5  15  8
6  9  6

$$$$
40191806
  -OEChem-11301217472D

 33 35  0     1  0  0  0  0  0999 V2000
    7.6717    3.6959    0.0000 Cl  0  0  0  0  0  0  0  0  0  0  0  0
    6.3825    2.5392    0.0000 Cl  0  0  0  0  0  0  0  0  0  0  0  0
    7.9244    0.0721    0.0000 O   0  0  0  0  0  0  0  0  0  0  0  0
    6.2781    0.6101    0.0000 N   0  0  0  0  0  0  0  0  0  0  0  0
    4.6783   -3.1066    0.0000 N   0  0  0  0  0  0  0  0  0  0  0  0
    7.5673    1.7669    0.0000 C   0  0  1  0  0  0  0  0  0  0  0  0
    7.3610    2.7454    0.0000 C   0  0  0  0  0  0  0  0  0  0  0  0
    8.3116    2.4347    0.0000 C   0  0  0  0  0  0  0  0  0  0  0  0
    7.2566    0.8164    0.0000 C   0  0  0  0  0  0  0  0  0  0  0  0
    5.9674   -0.3404    0.0000 C   0  0  0  0  0  0  0  0  0  0  0  0
    4.9889   -0.5466    0.0000 C   0  0  0  0  0  0  0  0  0  0  0  0
    4.6783   -1.4971    0.0000 C   0  0  0  0  0  0  0  0  0  0  0  0
    3.7320   -1.8018    0.0000 C   0  0  0  0  0  0  0  0  0  0  0  0
    3.7320   -2.8018    0.0000 C   0  0  0  0  0  0  0  0  0  0  0  0
    5.2619   -2.3018    0.0000 C   0  0  0  0  0  0  0  0  0  0  0  0
    2.8660   -1.3018    0.0000 C   0  0  0  0  0  0  0  0  0  0  0  0
    2.8660   -3.3018    0.0000 C   0  0  0  0  0  0  0  0  0  0  0  0
    2.0000   -1.8018    0.0000 C   0  0  0  0  0  0  0  0  0  0  0  0
    2.0000   -2.8018    0.0000 C   0  0  0  0  0  0  0  0  0  0  0  0
    6.9482    1.8004    0.0000 H   0  0  0  0  0  0  0  0  0  0  0  0
    8.7995    2.0522    0.0000 H   0  0  0  0  0  0  0  0  0  0  0  0
    8.6036    2.9816    0.0000 H   0  0  0  0  0  0  0  0  0  0  0  0
    5.8640    1.0716    0.0000 H   0  0  0  0  0  0  0  0  0  0  0  0
    5.9880   -0.9600    0.0000 H   0  0  0  0  0  0  0  0  0  0  0  0
    6.5812   -0.4277    0.0000 H   0  0  0  0  0  0  0  0  0  0  0  0
    4.9684    0.0731    0.0000 H   0  0  0  0  0  0  0  0  0  0  0  0
    4.3751   -0.4592    0.0000 H   0  0  0  0  0  0  0  0  0  0  0  0
    5.8819   -2.3018    0.0000 H   0  0  0  0  0  0  0  0  0  0  0  0
    4.8709   -3.6959    0.0000 H   0  0  0  0  0  0  0  0  0  0  0  0
    2.8660   -0.6819    0.0000 H   0  0  0  0  0  0  0  0  0  0  0  0
    2.8660   -3.9218    0.0000 H   0  0  0  0  0  0  0  0  0  0  0  0
    1.4631   -1.4918    0.0000 H   0  0  0  0  0  0  0  0  0  0  0  0
    1.4631   -3.1118    0.0000 H   0  0  0  0  0  0  0  0  0  0  0  0
  1  7  1  0  0  0  0
  2  7  1  0  0  0  0
  3  9  2  0  0  0  0
  4  9  1  0  0  0  0
  4 10  1  0  0  0  0
  4 23  1  0  0  0  0
  5 14  1  0  0  0  0
  5 15  1  0  0  0  0
  5 29  1  0  0  0  0
  6  7  1  0  0  0  0
  6  8  1  0  0  0  0
  6  9  1  1  0  0  0
  6 20  1  0  0  0  0
  7  8  1  0  0  0  0
  8 21  1  0  0  0  0
  8 22  1  0  0  0  0
 10 11  1  0  0  0  0
 10 24  1  0  0  0  0
 10 25  1  0  0  0  0
 11 12  1  0  0  0  0
 11 26  1  0  0  0  0
 11 27  1  0  0  0  0
 12 13  1  0  0  0  0
 12 15  2  0  0  0  0
 13 14  1  0  0  0  0
 13 16  2  0  0  0  0
 14 17  2  0  0  0  0
 15 28  1  0  0  0  0
 16 18  1  0  0  0  0
 16 30  1  0  0  0  0
 17 19  1  0  0  0  0
 17 31  1  0  0  0  0
 18 19  2  0  0  0  0
 18 32  1  0  0  0  0
 19 33  1  0  0  0  0
M  END
> <PUBCHEM_COMPOUND_CID>
40191806

> <PUBCHEM_COMPOUND_CANONICALIZED>
1

> <PUBCHEM_CACTVS_COMPLEXITY>
361

> <PUBCHEM_CACTVS_HBOND_ACCEPTOR>
1

> <PUBCHEM_CACTVS_HBOND_DONOR>
2

> <PUBCHEM_CACTVS_ROTATABLE_BOND>
4

> <PUBCHEM_CACTVS_SUBSKEYS>
AAADccBzIAAGAAAAAAAAAAAAGAAAAWAAAAAwAAAAAAAAAFgB8AAAHgIQAAAADQrBnoQ8wPLJkACoAzV3VACCgCAxAiAI2aE4ZpgIIPLBkZGEIAhglgDIyAcQgMAOgAAAAAACAAAAAAAAAAQAAAAAAAAAAA==

> <PUBCHEM_IUPAC_OPENEYE_NAME>
(1S)-2,2-dichloro-N-[2-(1H-indol-3-yl)ethyl]cyclopropanecarboxamide

> <PUBCHEM_IUPAC_CAS_NAME>
(1S)-2,2-dichloro-N-[2-(1H-indol-3-yl)ethyl]-1-cyclopropanecarboxamide

> <PUBCHEM_IUPAC_NAME>
(1S)-2,2-dichloro-N-[2-(1H-indol-3-yl)ethyl]cyclopropane-1-carboxamide

> <PUBCHEM_IUPAC_SYSTEMATIC_NAME>
(1S)-2,2-bis(chloranyl)-N-[2-(1H-indol-3-yl)ethyl]cyclopropane-1-carboxamide

> <PUBCHEM_IUPAC_TRADITIONAL_NAME>
(1S)-2,2-dichloro-N-[2-(1H-indol-3-yl)ethyl]cyclopropanecarboxamide

> <PUBCHEM_IUPAC_INCHI>
InChI=1S/C14H14Cl2N2O/c15-14(16)7-11(14)13(19)17-6-5-9-8-18-12-4-2-1-3-10(9)12/h1-4,8,11,18H,5-7H2,(H,17,19)/t11-/m0/s1

> <PUBCHEM_IUPAC_INCHIKEY>
ANYUMJRKNYJVSY-NSHDSACASA-N

> <PUBCHEM_XLOGP3>
3.1

> <PUBCHEM_EXACT_MASS>
296.048318

> <PUBCHEM_MOLECULAR_FORMULA>
C14H14Cl2N2O

> <PUBCHEM_MOLECULAR_WEIGHT>
297.17976

> <PUBCHEM_OPENEYE_CAN_SMILES>
C1C(C1(Cl)Cl)C(=O)NCCC2=CNC3=CC=CC=C32

> <PUBCHEM_OPENEYE_ISO_SMILES>
C1[C@H](C1(Cl)Cl)C(=O)NCCC2=CNC3=CC=CC=C32

> <PUBCHEM_CACTVS_TPSA>
44.9

> <PUBCHEM_MONOISOTOPIC_WEIGHT>
296.048318

> <PUBCHEM_TOTAL_CHARGE>
0

> <PUBCHEM_HEAVY_ATOM_COUNT>
19

> <PUBCHEM_ATOM_DEF_STEREO_COUNT>
1

> <PUBCHEM_ATOM_UDEF_STEREO_COUNT>
0

> <PUBCHEM_BOND_DEF_STEREO_COUNT>
0

> <PUBCHEM_BOND_UDEF_STEREO_COUNT>
0

> <PUBCHEM_ISOTOPIC_ATOM_COUNT>
0

> <PUBCHEM_COMPONENT_COUNT>
1

> <PUBCHEM_CACTVS_TAUTO_COUNT>
2

> <PUBCHEM_COORDINATE_TYPE>
1
5
255

> <PUBCHEM_BONDANNOTATIONS>
12  13  8
12  15  8
13  14  8
13  16  8
14  17  8
16  18  8
17  19  8
18  19  8
5  14  8
5  15  8
6  9  5

$$$$
