5951594
  -OEChem-06011308012D

 43 45  0     0  0  0  0  0  0999 V2000
    2.8660   -1.3343    0.0000 N   0  3  0  0  0  0  0  0  0  0  0  0
    8.9282    0.1657    0.0000 N   0  0  0  0  0  0  0  0  0  0  0  0
    3.7320   -0.8343    0.0000 C   0  0  0  0  0  0  0  0  0  0  0  0
    2.0000   -1.8343    0.0000 C   0  0  0  0  0  0  0  0  0  0  0  0
    2.3660   -0.4683    0.0000 C   0  0  0  0  0  0  0  0  0  0  0  0
    3.3660   -2.2003    0.0000 C   0  0  0  0  0  0  0  0  0  0  0  0
    4.5981   -1.3343    0.0000 C   0  0  0  0  0  0  0  0  0  0  0  0
    3.7320    0.1657    0.0000 C   0  0  0  0  0  0  0  0  0  0  0  0
    5.4641    0.1657    0.0000 C   0  0  0  0  0  0  0  0  0  0  0  0
    5.4641   -0.8343    0.0000 C   0  0  0  0  0  0  0  0  0  0  0  0
    4.5981    0.6657    0.0000 C   0  0  0  0  0  0  0  0  0  0  0  0
    6.3301    0.6657    0.0000 C   0  0  0  0  0  0  0  0  0  0  0  0
    7.1962    0.1657    0.0000 C   0  0  0  0  0  0  0  0  0  0  0  0
    8.0622    0.6657    0.0000 C   0  0  0  0  0  0  0  0  0  0  0  0
    9.7942    1.6657    0.0000 C   0  0  0  0  0  0  0  0  0  0  0  0
    9.7942    0.6657    0.0000 C   0  0  0  0  0  0  0  0  0  0  0  0
    8.0622    1.6657    0.0000 C   0  0  0  0  0  0  0  0  0  0  0  0
    8.9282    2.1657    0.0000 C   0  0  0  0  0  0  0  0  0  0  0  0
   10.6882    2.2003    0.0000 C   0  0  0  0  0  0  0  0  0  0  0  0
   10.6882    0.1310    0.0000 C   0  0  0  0  0  0  0  0  0  0  0  0
   11.5942    1.6865    0.0000 C   0  0  0  0  0  0  0  0  0  0  0  0
   11.5942    0.6449    0.0000 C   0  0  0  0  0  0  0  0  0  0  0  0
    1.6900   -1.2974    0.0000 H   0  0  0  0  0  0  0  0  0  0  0  0
    1.4631   -2.1443    0.0000 H   0  0  0  0  0  0  0  0  0  0  0  0
    2.3100   -2.3712    0.0000 H   0  0  0  0  0  0  0  0  0  0  0  0
    2.8291   -2.5103    0.0000 H   0  0  0  0  0  0  0  0  0  0  0  0
    3.6760   -2.7373    0.0000 H   0  0  0  0  0  0  0  0  0  0  0  0
    3.9030   -1.8903    0.0000 H   0  0  0  0  0  0  0  0  0  0  0  0
    2.9030   -0.1583    0.0000 H   0  0  0  0  0  0  0  0  0  0  0  0
    2.0560    0.0686    0.0000 H   0  0  0  0  0  0  0  0  0  0  0  0
    1.8291   -0.7783    0.0000 H   0  0  0  0  0  0  0  0  0  0  0  0
    4.5981   -1.9543    0.0000 H   0  0  0  0  0  0  0  0  0  0  0  0
    3.1951    0.4757    0.0000 H   0  0  0  0  0  0  0  0  0  0  0  0
    6.0010   -1.1443    0.0000 H   0  0  0  0  0  0  0  0  0  0  0  0
    4.5981    1.2857    0.0000 H   0  0  0  0  0  0  0  0  0  0  0  0
    6.3301    1.2857    0.0000 H   0  0  0  0  0  0  0  0  0  0  0  0
    7.1962   -0.4543    0.0000 H   0  0  0  0  0  0  0  0  0  0  0  0
    7.5252    1.9757    0.0000 H   0  0  0  0  0  0  0  0  0  0  0  0
    8.9282    2.7857    0.0000 H   0  0  0  0  0  0  0  0  0  0  0  0
   10.6810    2.8203    0.0000 H   0  0  0  0  0  0  0  0  0  0  0  0
   10.6810   -0.4889    0.0000 H   0  0  0  0  0  0  0  0  0  0  0  0
   12.1300    1.9986    0.0000 H   0  0  0  0  0  0  0  0  0  0  0  0
   12.1300    0.3328    0.0000 H   0  0  0  0  0  0  0  0  0  0  0  0
  1  3  1  0  0  0  0
  1  4  1  0  0  0  0
  1  5  1  0  0  0  0
  1  6  1  0  0  0  0
  2 14  2  0  0  0  0
  2 16  1  0  0  0  0
  3  7  2  0  0  0  0
  3  8  1  0  0  0  0
  4 23  1  0  0  0  0
  4 24  1  0  0  0  0
  4 25  1  0  0  0  0
  5 29  1  0  0  0  0
  5 30  1  0  0  0  0
  5 31  1  0  0  0  0
  6 26  1  0  0  0  0
  6 27  1  0  0  0  0
  6 28  1  0  0  0  0
  7 10  1  0  0  0  0
  7 32  1  0  0  0  0
  8 11  2  0  0  0  0
  8 33  1  0  0  0  0
  9 10  2  0  0  0  0
  9 11  1  0  0  0  0
  9 12  1  0  0  0  0
 10 34  1  0  0  0  0
 11 35  1  0  0  0  0
 12 13  2  0  0  0  0
 12 36  1  0  0  0  0
 13 14  1  0  0  0  0
 13 37  1  0  0  0  0
 14 17  1  0  0  0  0
 15 16  1  0  0  0  0
 15 18  1  0  0  0  0
 15 19  2  0  0  0  0
 16 20  2  0  0  0  0
 17 18  2  0  0  0  0
 17 38  1  0  0  0  0
 18 39  1  0  0  0  0
 19 21  1  0  0  0  0
 19 40  1  0  0  0  0
 20 22  1  0  0  0  0
 20 41  1  0  0  0  0
 21 22  2  0  0  0  0
 21 42  1  0  0  0  0
 22 43  1  0  0  0  0
M  CHG  1   1   1
M  END
> <PUBCHEM_COMPOUND_CID>
5951594

> <PUBCHEM_COMPOUND_CANONICALIZED>
1

> <PUBCHEM_CACTVS_COMPLEXITY>
374

> <PUBCHEM_CACTVS_HBOND_ACCEPTOR>
1

> <PUBCHEM_CACTVS_HBOND_DONOR>
0

> <PUBCHEM_CACTVS_ROTATABLE_BOND>
3

> <PUBCHEM_CACTVS_SUBSKEYS>
AAADceB7AAAAAAAAAAAAAAAAAAAAAAAAAAA8YIAAAAAAAACx9AAAHAAAAAAADAiBHgQywPMIEACgAyRiRACCgCAhAiAImCA4ZJgIIOLAkZGEIAhggADIyAcQgIAOCAAAAAACAAAQAAAAAAQAAAAAAAAAAA==

> <PUBCHEM_IUPAC_OPENEYE_NAME>
trimethyl-[4-[(E)-2-(2-quinolyl)vinyl]phenyl]ammonium

> <PUBCHEM_IUPAC_CAS_NAME>
trimethyl-[4-[(E)-2-(2-quinolinyl)ethenyl]phenyl]ammonium

> <PUBCHEM_IUPAC_NAME>
trimethyl-[4-[(E)-2-quinolin-2-ylethenyl]phenyl]azanium

> <PUBCHEM_IUPAC_SYSTEMATIC_NAME>
trimethyl-[4-[(E)-2-quinolin-2-ylethenyl]phenyl]azanium

> <PUBCHEM_IUPAC_TRADITIONAL_NAME>
trimethyl-[4-[(E)-2-(2-quinolyl)vinyl]phenyl]ammonium

> <PUBCHEM_IUPAC_INCHI>
InChI=1S/C20H21N2/c1-22(2,3)19-14-9-16(10-15-19)8-12-18-13-11-17-6-4-5-7-20(17)21-18/h4-15H,1-3H3/q+1/b12-8+

> <PUBCHEM_IUPAC_INCHIKEY>
HVEOWOAYACQWGE-XYOKQWHBSA-N

> <PUBCHEM_XLOGP3>
4.4

> <PUBCHEM_EXACT_MASS>
289.170474

> <PUBCHEM_MOLECULAR_FORMULA>
C20H21N2+

> <PUBCHEM_MOLECULAR_WEIGHT>
289.39414

> <PUBCHEM_OPENEYE_CAN_SMILES>
C[N+](C)(C)C1=CC=C(C=C1)C=CC2=NC3=CC=CC=C3C=C2

> <PUBCHEM_OPENEYE_ISO_SMILES>
C[N+](C)(C)C1=CC=C(C=C1)/C=C/C2=NC3=CC=CC=C3C=C2

> <PUBCHEM_CACTVS_TPSA>
12.9

> <PUBCHEM_MONOISOTOPIC_WEIGHT>
289.170474

> <PUBCHEM_TOTAL_CHARGE>
1

> <PUBCHEM_HEAVY_ATOM_COUNT>
22

> <PUBCHEM_ATOM_DEF_STEREO_COUNT>
0

> <PUBCHEM_ATOM_UDEF_STEREO_COUNT>
0

> <PUBCHEM_BOND_DEF_STEREO_COUNT>
1

> <PUBCHEM_BOND_UDEF_STEREO_COUNT>
0

> <PUBCHEM_ISOTOPIC_ATOM_COUNT>
0

> <PUBCHEM_COMPONENT_COUNT>
1

> <PUBCHEM_CACTVS_TAUTO_COUNT>
1

> <PUBCHEM_COORDINATE_TYPE>
1
5
255

> <PUBCHEM_BONDANNOTATIONS>
14  17  8
15  16  8
15  18  8
15  19  8
16  20  8
17  18  8
19  21  8
2  14  8
2  16  8
20  22  8
21  22  8
3  7  8
3  8  8
7  10  8
8  11  8
9  10  8
9  11  8

$$$$
5962982
  -OEChem-06011308012D

 33 33  0     0  0  0  0  0  0999 V2000
    4.5981    1.7500    0.0000 N   0  0  0  0  0  0  0  0  0  0  0  0
    3.7320    1.2500    0.0000 C   0  0  0  0  0  0  0  0  0  0  0  0
    4.5981    2.7500    0.0000 C   0  0  0  0  0  0  0  0  0  0  0  0
    5.4641    1.2500    0.0000 C   0  0  0  0  0  0  0  0  0  0  0  0
    3.7320    0.2500    0.0000 C   0  0  0  0  0  0  0  0  0  0  0  0
    5.4641    3.2500    0.0000 C   0  0  0  0  0  0  0  0  0  0  0  0
    6.3301    1.7500    0.0000 C   0  0  0  0  0  0  0  0  0  0  0  0
    2.8660   -0.2500    0.0000 C   0  0  0  0  0  0  0  0  0  0  0  0
    2.8660   -1.2500    0.0000 C   0  0  0  0  0  0  0  0  0  0  0  0
    2.0000   -1.7500    0.0000 C   0  0  0  0  0  0  0  0  0  0  0  0
    3.7320   -1.7500    0.0000 C   0  0  0  0  0  0  0  0  0  0  0  0
    2.0000   -2.7500    0.0000 C   0  0  0  0  0  0  0  0  0  0  0  0
    3.7320   -2.7500    0.0000 C   0  0  0  0  0  0  0  0  0  0  0  0
    2.8660   -3.2500    0.0000 C   0  0  0  0  0  0  0  0  0  0  0  0
    3.5200    1.8326    0.0000 H   0  0  0  0  0  0  0  0  0  0  0  0
    3.1215    1.1423    0.0000 H   0  0  0  0  0  0  0  0  0  0  0  0
    4.3860    3.3326    0.0000 H   0  0  0  0  0  0  0  0  0  0  0  0
    3.9875    2.6423    0.0000 H   0  0  0  0  0  0  0  0  0  0  0  0
    5.0656    0.7751    0.0000 H   0  0  0  0  0  0  0  0  0  0  0  0
    5.8626    0.7751    0.0000 H   0  0  0  0  0  0  0  0  0  0  0  0
    4.2690   -0.0600    0.0000 H   0  0  0  0  0  0  0  0  0  0  0  0
    6.6401    1.2131    0.0000 H   0  0  0  0  0  0  0  0  0  0  0  0
    6.8671    2.0600    0.0000 H   0  0  0  0  0  0  0  0  0  0  0  0
    6.0201    2.2869    0.0000 H   0  0  0  0  0  0  0  0  0  0  0  0
    5.7741    2.7131    0.0000 H   0  0  0  0  0  0  0  0  0  0  0  0
    6.0010    3.5600    0.0000 H   0  0  0  0  0  0  0  0  0  0  0  0
    5.1541    3.7869    0.0000 H   0  0  0  0  0  0  0  0  0  0  0  0
    2.3291    0.0600    0.0000 H   0  0  0  0  0  0  0  0  0  0  0  0
    1.4631   -1.4400    0.0000 H   0  0  0  0  0  0  0  0  0  0  0  0
    4.2690   -1.4400    0.0000 H   0  0  0  0  0  0  0  0  0  0  0  0
    1.4631   -3.0600    0.0000 H   0  0  0  0  0  0  0  0  0  0  0  0
    4.2690   -3.0600    0.0000 H   0  0  0  0  0  0  0  0  0  0  0  0
    2.8660   -3.8700    0.0000 H   0  0  0  0  0  0  0  0  0  0  0  0
  1  2  1  0  0  0  0
  1  3  1  0  0  0  0
  1  4  1  0  0  0  0
  2  5  1  0  0  0  0
  2 15  1  0  0  0  0
  2 16  1  0  0  0  0
  3  6  1  0  0  0  0
  3 17  1  0  0  0  0
  3 18  1  0  0  0  0
  4  7  1  0  0  0  0
  4 19  1  0  0  0  0
  4 20  1  0  0  0  0
  5  8  2  0  0  0  0
  5 21  1  0  0  0  0
  6 25  1  0  0  0  0
  6 26  1  0  0  0  0
  6 27  1  0  0  0  0
  7 22  1  0  0  0  0
  7 23  1  0  0  0  0
  7 24  1  0  0  0  0
  8  9  1  0  0  0  0
  8 28  1  0  0  0  0
  9 10  2  0  0  0  0
  9 11  1  0  0  0  0
 10 12  1  0  0  0  0
 10 29  1  0  0  0  0
 11 13  2  0  0  0  0
 11 30  1  0  0  0  0
 12 14  2  0  0  0  0
 12 31  1  0  0  0  0
 13 14  1  0  0  0  0
 13 32  1  0  0  0  0
 14 33  1  0  0  0  0
M  END
> <PUBCHEM_COMPOUND_CID>
5962982

> <PUBCHEM_COMPOUND_CANONICALIZED>
1

> <PUBCHEM_CACTVS_COMPLEXITY>
153

> <PUBCHEM_CACTVS_HBOND_ACCEPTOR>
1

> <PUBCHEM_CACTVS_HBOND_DONOR>
0

> <PUBCHEM_CACTVS_ROTATABLE_BOND>
5

> <PUBCHEM_CACTVS_SUBSKEYS>
AAADceByAAAAAAAAAAAAAAAAAAAAAAAAAAAwAAAAAAAAAAABAAAAHAAAAAAADADBGAQyAIMAAACAAiBCAACCAAAgAAAIiAAIAIgIICKAERCAIAAggACIiAcAgAAOAAAAAAAAAAAAAAAAAAAAAAAAAAAAAA==

> <PUBCHEM_IUPAC_OPENEYE_NAME>
(E)-N,N-diethyl-3-phenyl-prop-2-en-1-amine

> <PUBCHEM_IUPAC_CAS_NAME>
(E)-N,N-diethyl-3-phenyl-2-propen-1-amine

> <PUBCHEM_IUPAC_NAME>
(E)-N,N-diethyl-3-phenylprop-2-en-1-amine

> <PUBCHEM_IUPAC_SYSTEMATIC_NAME>
(E)-N,N-diethyl-3-phenyl-prop-2-en-1-amine

> <PUBCHEM_IUPAC_TRADITIONAL_NAME>
[(E)-cinnamyl]-diethyl-amine

> <PUBCHEM_IUPAC_INCHI>
InChI=1S/C13H19N/c1-3-14(4-2)12-8-11-13-9-6-5-7-10-13/h5-11H,3-4,12H2,1-2H3/b11-8+

> <PUBCHEM_IUPAC_INCHIKEY>
PPMXDDJEXJDFMT-DHZHZOJOSA-N

> <PUBCHEM_XLOGP3>
3.3

> <PUBCHEM_EXACT_MASS>
189.15175

> <PUBCHEM_MOLECULAR_FORMULA>
C13H19N

> <PUBCHEM_MOLECULAR_WEIGHT>
189.29666

> <PUBCHEM_OPENEYE_CAN_SMILES>
CCN(CC)CC=CC1=CC=CC=C1

> <PUBCHEM_OPENEYE_ISO_SMILES>
CCN(CC)C/C=C/C1=CC=CC=C1

> <PUBCHEM_CACTVS_TPSA>
3.2

> <PUBCHEM_MONOISOTOPIC_WEIGHT>
189.15175

> <PUBCHEM_TOTAL_CHARGE>
0

> <PUBCHEM_HEAVY_ATOM_COUNT>
14

> <PUBCHEM_ATOM_DEF_STEREO_COUNT>
0

> <PUBCHEM_ATOM_UDEF_STEREO_COUNT>
0

> <PUBCHEM_BOND_DEF_STEREO_COUNT>
1

> <PUBCHEM_BOND_UDEF_STEREO_COUNT>
0

> <PUBCHEM_ISOTOPIC_ATOM_COUNT>
0

> <PUBCHEM_COMPONENT_COUNT>
1

> <PUBCHEM_CACTVS_TAUTO_COUNT>
1

> <PUBCHEM_COORDINATE_TYPE>
1
5
255

> <PUBCHEM_BONDANNOTATIONS>
10  12  8
11  13  8
12  14  8
13  14  8
9  10  8
9  11  8

$$$$
5964599
  -OEChem-06011308012D

 39 40  0     0  0  0  0  0  0999 V2000
    9.7942    4.3170    0.0000 S   0  0  0  0  0  0  0  0  0  0  0  0
   10.6603    4.8170    0.0000 F   0  0  0  0  0  0  0  0  0  0  0  0
    9.2942    5.1830    0.0000 O   0  0  0  0  0  0  0  0  0  0  0  0
   10.2942    3.4510    0.0000 O   0  0  0  0  0  0  0  0  0  0  0  0
    2.0000   -2.1830    0.0000 O   0  5  0  0  0  0  0  0  0  0  0  0
    2.8660   -0.6830    0.0000 O   0  0  0  0  0  0  0  0  0  0  0  0
    5.4641   -5.1830    0.0000 O   0  5  0  0  0  0  0  0  0  0  0  0
    3.7321   -5.1830    0.0000 O   0  0  0  0  0  0  0  0  0  0  0  0
    6.3301    2.3170    0.0000 N   0  0  0  0  0  0  0  0  0  0  0  0
    4.5981   -0.6830    0.0000 N   0  0  0  0  0  0  0  0  0  0  0  0
    5.4641   -0.1830    0.0000 N   0  0  0  0  0  0  0  0  0  0  0  0
    2.8660   -1.6830    0.0000 N   0  3  0  0  0  0  0  0  0  0  0  0
    4.5981   -4.6830    0.0000 N   0  3  0  0  0  0  0  0  0  0  0  0
    7.1962    2.8170    0.0000 C   0  0  0  0  0  0  0  0  0  0  0  0
    8.9282    3.8170    0.0000 C   0  0  0  0  0  0  0  0  0  0  0  0
    4.5981   -1.6830    0.0000 C   0  0  0  0  0  0  0  0  0  0  0  0
    6.3301    1.3170    0.0000 C   0  0  0  0  0  0  0  0  0  0  0  0
    7.1962    3.8170    0.0000 C   0  0  0  0  0  0  0  0  0  0  0  0
    8.0622    2.3170    0.0000 C   0  0  0  0  0  0  0  0  0  0  0  0
    8.0622    4.3170    0.0000 C   0  0  0  0  0  0  0  0  0  0  0  0
    8.9282    2.8170    0.0000 C   0  0  0  0  0  0  0  0  0  0  0  0
    3.7321   -2.1830    0.0000 C   0  0  0  0  0  0  0  0  0  0  0  0
    5.4641   -2.1830    0.0000 C   0  0  0  0  0  0  0  0  0  0  0  0
    3.7321   -3.1830    0.0000 C   0  0  0  0  0  0  0  0  0  0  0  0
    4.5981   -3.6830    0.0000 C   0  0  0  0  0  0  0  0  0  0  0  0
    5.4641   -3.1830    0.0000 C   0  0  0  0  0  0  0  0  0  0  0  0
    5.4641    0.8170    0.0000 C   0  0  0  0  0  0  0  0  0  0  0  0
    5.7932    2.6270    0.0000 H   0  0  0  0  0  0  0  0  0  0  0  0
    6.5422    0.7344    0.0000 H   0  0  0  0  0  0  0  0  0  0  0  0
    6.9407    1.4246    0.0000 H   0  0  0  0  0  0  0  0  0  0  0  0
    6.6592    4.1270    0.0000 H   0  0  0  0  0  0  0  0  0  0  0  0
    8.0622    1.6970    0.0000 H   0  0  0  0  0  0  0  0  0  0  0  0
    8.0622    4.9370    0.0000 H   0  0  0  0  0  0  0  0  0  0  0  0
    9.4651    2.5070    0.0000 H   0  0  0  0  0  0  0  0  0  0  0  0
    6.0010   -1.8730    0.0000 H   0  0  0  0  0  0  0  0  0  0  0  0
    3.1951   -3.4930    0.0000 H   0  0  0  0  0  0  0  0  0  0  0  0
    6.0010   -3.4930    0.0000 H   0  0  0  0  0  0  0  0  0  0  0  0
    4.0611   -0.3730    0.0000 H   0  0  0  0  0  0  0  0  0  0  0  0
    4.9272    1.1270    0.0000 H   0  0  0  0  0  0  0  0  0  0  0  0
  1  2  1  0  0  0  0
  1  3  2  0  0  0  0
  1  4  2  0  0  0  0
  1 15  1  0  0  0  0
  5 12  1  0  0  0  0
  6 12  2  0  0  0  0
  7 13  1  0  0  0  0
  8 13  2  0  0  0  0
  9 14  1  0  0  0  0
  9 17  1  0  0  0  0
  9 28  1  0  0  0  0
 10 11  1  0  0  0  0
 10 16  1  0  0  0  0
 10 38  1  0  0  0  0
 11 27  2  0  0  0  0
 12 22  1  0  0  0  0
 13 25  1  0  0  0  0
 14 18  2  0  0  0  0
 14 19  1  0  0  0  0
 15 20  2  0  0  0  0
 15 21  1  0  0  0  0
 16 22  2  0  0  0  0
 16 23  1  0  0  0  0
 17 27  1  0  0  0  0
 17 29  1  0  0  0  0
 17 30  1  0  0  0  0
 18 20  1  0  0  0  0
 18 31  1  0  0  0  0
 19 21  2  0  0  0  0
 19 32  1  0  0  0  0
 20 33  1  0  0  0  0
 21 34  1  0  0  0  0
 22 24  1  0  0  0  0
 23 26  2  0  0  0  0
 23 35  1  0  0  0  0
 24 25  2  0  0  0  0
 24 36  1  0  0  0  0
 25 26  1  0  0  0  0
 26 37  1  0  0  0  0
 27 39  1  0  0  0  0
M  CHG  4   5  -1   7  -1  12   1  13   1
M  END
> <PUBCHEM_COMPOUND_CID>
5964599

> <PUBCHEM_COMPOUND_CANONICALIZED>
1

> <PUBCHEM_CACTVS_COMPLEXITY>
650

> <PUBCHEM_CACTVS_HBOND_ACCEPTOR>
10

> <PUBCHEM_CACTVS_HBOND_DONOR>
2

> <PUBCHEM_CACTVS_ROTATABLE_BOND>
6

> <PUBCHEM_CACTVS_SUBSKEYS>
AAADccBzuQBAAAAAAAAAAAAAAAAAAAAAAAAwYAAAAAAAAAABQAAAHAQcAAQACAjBUAQwwYLyQAKhADRjQ3DSBAAhAgA4iJgYdIoIYCLA0dGEIAhgmIDIyAcQAAAAAASAAAQAACAACQAACAAAQAAAAAAAAA==

> <PUBCHEM_IUPAC_OPENEYE_NAME>
4-[[(2Z)-2-[(2,4-dinitrophenyl)hydrazono]ethyl]amino]benzenesulfonyl fluoride

> <PUBCHEM_IUPAC_CAS_NAME>
4-[[(2Z)-2-[(2,4-dinitrophenyl)hydrazinylidene]ethyl]amino]benzenesulfonyl fluoride

> <PUBCHEM_IUPAC_NAME>
4-[[(2Z)-2-[(2,4-dinitrophenyl)hydrazinylidene]ethyl]amino]benzenesulfonyl fluoride

> <PUBCHEM_IUPAC_SYSTEMATIC_NAME>
4-[[(2Z)-2-[(2,4-dinitrophenyl)hydrazinylidene]ethyl]amino]benzenesulfonyl fluoride

> <PUBCHEM_IUPAC_TRADITIONAL_NAME>
4-[[(2Z)-2-[(2,4-dinitrophenyl)hydrazono]ethyl]amino]benzenesulfonyl fluoride

> <PUBCHEM_IUPAC_INCHI>
InChI=1S/C14H12FN5O6S/c15-27(25,26)12-4-1-10(2-5-12)16-7-8-17-18-13-6-3-11(19(21)22)9-14(13)20(23)24/h1-6,8-9,16,18H,7H2/b17-8-

> <PUBCHEM_IUPAC_INCHIKEY>
UIZLBWWJGIEYJS-IUXPMGMMSA-N

> <PUBCHEM_XLOGP3>
2.3

> <PUBCHEM_EXACT_MASS>
397.049232

> <PUBCHEM_MOLECULAR_FORMULA>
C14H12FN5O6S

> <PUBCHEM_MOLECULAR_WEIGHT>
397.338383

> <PUBCHEM_OPENEYE_CAN_SMILES>
C1=CC(=CC=C1NCC=NNC2=C(C=C(C=C2)[N+](=O)[O-])[N+](=O)[O-])S(=O)(=O)F

> <PUBCHEM_OPENEYE_ISO_SMILES>
C1=CC(=CC=C1NC/C=N\NC2=C(C=C(C=C2)[N+](=O)[O-])[N+](=O)[O-])S(=O)(=O)F

> <PUBCHEM_CACTVS_TPSA>
171

> <PUBCHEM_MONOISOTOPIC_WEIGHT>
397.049232

> <PUBCHEM_TOTAL_CHARGE>
0

> <PUBCHEM_HEAVY_ATOM_COUNT>
27

> <PUBCHEM_ATOM_DEF_STEREO_COUNT>
0

> <PUBCHEM_ATOM_UDEF_STEREO_COUNT>
0

> <PUBCHEM_BOND_DEF_STEREO_COUNT>
1

> <PUBCHEM_BOND_UDEF_STEREO_COUNT>
0

> <PUBCHEM_ISOTOPIC_ATOM_COUNT>
0

> <PUBCHEM_COMPONENT_COUNT>
1

> <PUBCHEM_CACTVS_TAUTO_COUNT>
1

> <PUBCHEM_COORDINATE_TYPE>
1
5
255

> <PUBCHEM_BONDANNOTATIONS>
14  18  8
14  19  8
15  20  8
15  21  8
16  22  8
16  23  8
18  20  8
19  21  8
22  24  8
23  26  8
24  25  8
25  26  8

$$$$
5971566
  -OEChem-06011308012D

 53 55  0     0  0  0  0  0  0999 V2000
   12.3923   -1.6900    0.0000 S   0  0  0  0  0  0  0  0  0  0  0  0
   11.8923   -2.5560    0.0000 O   0  0  0  0  0  0  0  0  0  0  0  0
   12.8923   -0.8240    0.0000 O   0  0  0  0  0  0  0  0  0  0  0  0
   14.9904    0.8100    0.0000 O   0  0  0  0  0  0  0  0  0  0  0  0
   16.7224   -2.1900    0.0000 O   0  0  0  0  0  0  0  0  0  0  0  0
    8.0622   -1.1900    0.0000 O   0  0  0  0  0  0  0  0  0  0  0  0
    2.0000    1.3100    0.0000 O   0  5  0  0  0  0  0  0  0  0  0  0
    2.8660    2.8100    0.0000 O   0  0  0  0  0  0  0  0  0  0  0  0
   13.2583   -2.1900    0.0000 N   0  0  0  0  0  0  0  0  0  0  0  0
    8.9282    0.3100    0.0000 N   0  0  0  0  0  0  0  0  0  0  0  0
   14.9904   -2.1900    0.0000 N   0  0  0  0  0  0  0  0  0  0  0  0
   15.8564   -0.6900    0.0000 N   0  0  0  0  0  0  0  0  0  0  0  0
    2.8660    1.8100    0.0000 N   0  3  0  0  0  0  0  0  0  0  0  0
   11.5263   -1.1900    0.0000 C   0  0  0  0  0  0  0  0  0  0  0  0
   11.5263   -0.1900    0.0000 C   0  0  0  0  0  0  0  0  0  0  0  0
   10.6603   -1.6900    0.0000 C   0  0  0  0  0  0  0  0  0  0  0  0
    9.7942   -0.1900    0.0000 C   0  0  0  0  0  0  0  0  0  0  0  0
   10.6603    0.3100    0.0000 C   0  0  0  0  0  0  0  0  0  0  0  0
    9.7942   -1.1900    0.0000 C   0  0  0  0  0  0  0  0  0  0  0  0
   14.1244   -1.6900    0.0000 C   0  0  0  0  0  0  0  0  0  0  0  0
   14.1244   -0.6900    0.0000 C   0  0  0  0  0  0  0  0  0  0  0  0
    8.0622   -0.1900    0.0000 C   0  0  0  0  0  0  0  0  0  0  0  0
    5.4641    0.3100    0.0000 C   0  0  0  0  0  0  0  0  0  0  0  0
    7.1962    0.3100    0.0000 C   0  0  0  0  0  0  0  0  0  0  0  0
   14.9904   -0.1900    0.0000 C   0  0  0  0  0  0  0  0  0  0  0  0
    6.3301   -0.1900    0.0000 C   0  0  0  0  0  0  0  0  0  0  0  0
    5.4641    1.3100    0.0000 C   0  0  0  0  0  0  0  0  0  0  0  0
    4.5981   -0.1900    0.0000 C   0  0  0  0  0  0  0  0  0  0  0  0
   15.8564   -1.6900    0.0000 C   0  0  0  0  0  0  0  0  0  0  0  0
    3.7320    1.3100    0.0000 C   0  0  0  0  0  0  0  0  0  0  0  0
    4.5981    1.8100    0.0000 C   0  0  0  0  0  0  0  0  0  0  0  0
    3.7320    0.3100    0.0000 C   0  0  0  0  0  0  0  0  0  0  0  0
   15.8564    1.3100    0.0000 C   0  0  0  0  0  0  0  0  0  0  0  0
   17.5885   -1.6900    0.0000 C   0  0  0  0  0  0  0  0  0  0  0  0
   12.0632    0.1200    0.0000 H   0  0  0  0  0  0  0  0  0  0  0  0
   10.6603   -2.3100    0.0000 H   0  0  0  0  0  0  0  0  0  0  0  0
   13.2583   -2.8100    0.0000 H   0  0  0  0  0  0  0  0  0  0  0  0
   10.6603    0.9300    0.0000 H   0  0  0  0  0  0  0  0  0  0  0  0
    9.2573   -1.5000    0.0000 H   0  0  0  0  0  0  0  0  0  0  0  0
    8.9282    0.9300    0.0000 H   0  0  0  0  0  0  0  0  0  0  0  0
   13.5874   -0.3800    0.0000 H   0  0  0  0  0  0  0  0  0  0  0  0
    7.1962    0.9300    0.0000 H   0  0  0  0  0  0  0  0  0  0  0  0
    6.3301   -0.8100    0.0000 H   0  0  0  0  0  0  0  0  0  0  0  0
    6.0010    1.6200    0.0000 H   0  0  0  0  0  0  0  0  0  0  0  0
    4.5981   -0.8100    0.0000 H   0  0  0  0  0  0  0  0  0  0  0  0
    4.5981    2.4300    0.0000 H   0  0  0  0  0  0  0  0  0  0  0  0
    3.1951    0.0000    0.0000 H   0  0  0  0  0  0  0  0  0  0  0  0
   16.1664    0.7731    0.0000 H   0  0  0  0  0  0  0  0  0  0  0  0
   16.3933    1.6200    0.0000 H   0  0  0  0  0  0  0  0  0  0  0  0
   15.5464    1.8469    0.0000 H   0  0  0  0  0  0  0  0  0  0  0  0
   17.8985   -2.2269    0.0000 H   0  0  0  0  0  0  0  0  0  0  0  0
   18.1254   -1.3800    0.0000 H   0  0  0  0  0  0  0  0  0  0  0  0
   17.2785   -1.1531    0.0000 H   0  0  0  0  0  0  0  0  0  0  0  0
  1  2  2  0  0  0  0
  1  3  2  0  0  0  0
  1  9  1  0  0  0  0
  1 14  1  0  0  0  0
  4 25  1  0  0  0  0
  4 33  1  0  0  0  0
  5 29  1  0  0  0  0
  5 34  1  0  0  0  0
  6 22  2  0  0  0  0
  7 13  1  0  0  0  0
  8 13  2  0  0  0  0
  9 20  1  0  0  0  0
  9 37  1  0  0  0  0
 10 17  1  0  0  0  0
 10 22  1  0  0  0  0
 10 40  1  0  0  0  0
 11 20  1  0  0  0  0
 11 29  2  0  0  0  0
 12 25  2  0  0  0  0
 12 29  1  0  0  0  0
 13 30  1  0  0  0  0
 14 15  2  0  0  0  0
 14 16  1  0  0  0  0
 15 18  1  0  0  0  0
 15 35  1  0  0  0  0
 16 19  2  0  0  0  0
 16 36  1  0  0  0  0
 17 18  2  0  0  0  0
 17 19  1  0  0  0  0
 18 38  1  0  0  0  0
 19 39  1  0  0  0  0
 20 21  2  0  0  0  0
 21 25  1  0  0  0  0
 21 41  1  0  0  0  0
 22 24  1  0  0  0  0
 23 26  1  0  0  0  0
 23 27  2  0  0  0  0
 23 28  1  0  0  0  0
 24 26  2  0  0  0  0
 24 42  1  0  0  0  0
 26 43  1  0  0  0  0
 27 31  1  0  0  0  0
 27 44  1  0  0  0  0
 28 32  2  0  0  0  0
 28 45  1  0  0  0  0
 30 31  2  0  0  0  0
 30 32  1  0  0  0  0
 31 46  1  0  0  0  0
 32 47  1  0  0  0  0
 33 48  1  0  0  0  0
 33 49  1  0  0  0  0
 33 50  1  0  0  0  0
 34 51  1  0  0  0  0
 34 52  1  0  0  0  0
 34 53  1  0  0  0  0
M  CHG  2   7  -1  13   1
M  END
> <PUBCHEM_COMPOUND_CID>
5971566

> <PUBCHEM_COMPOUND_CANONICALIZED>
1

> <PUBCHEM_CACTVS_COMPLEXITY>
812

> <PUBCHEM_CACTVS_HBOND_ACCEPTOR>
10

> <PUBCHEM_CACTVS_HBOND_DONOR>
2

> <PUBCHEM_CACTVS_ROTATABLE_BOND>
8

> <PUBCHEM_CACTVS_SUBSKEYS>
AAADceB7uABAAAAAAAAAAAAAAAAAAAAAAAA8YIAAAAAAAAAB0AAAHgQUQAAADAiB2gIz9ZbYVAKpAidyd3DCiDkhIqApmDg2bNqMLCLE+dmEJChqlArI6acQgAAOCAQAAAAAAAAQCAAAAAAAAAAAAAAAAA==

> <PUBCHEM_IUPAC_OPENEYE_NAME>
(E)-N-[4-[(2,6-dimethoxypyrimidin-4-yl)sulfamoyl]phenyl]-3-(4-nitrophenyl)prop-2-enamide

> <PUBCHEM_IUPAC_CAS_NAME>
(E)-N-[4-[(2,6-dimethoxy-4-pyrimidinyl)sulfamoyl]phenyl]-3-(4-nitrophenyl)-2-propenamide

> <PUBCHEM_IUPAC_NAME>
(E)-N-[4-[(2,6-dimethoxypyrimidin-4-yl)sulfamoyl]phenyl]-3-(4-nitrophenyl)prop-2-enamide

> <PUBCHEM_IUPAC_SYSTEMATIC_NAME>
(E)-N-[4-[(2,6-dimethoxypyrimidin-4-yl)sulfamoyl]phenyl]-3-(4-nitrophenyl)prop-2-enamide

> <PUBCHEM_IUPAC_TRADITIONAL_NAME>
(E)-N-[4-[(2,6-dimethoxypyrimidin-4-yl)sulfamoyl]phenyl]-3-(4-nitrophenyl)acrylamide

> <PUBCHEM_IUPAC_INCHI>
InChI=1S/C21H19N5O7S/c1-32-20-13-18(23-21(24-20)33-2)25-34(30,31)17-10-6-15(7-11-17)22-19(27)12-5-14-3-8-16(9-4-14)26(28)29/h3-13H,1-2H3,(H,22,27)(H,23,24,25)/b12-5+

> <PUBCHEM_IUPAC_INCHIKEY>
OWEKOAUVBDYQMU-LFYBBSHMSA-N

> <PUBCHEM_XLOGP3>
3.4

> <PUBCHEM_EXACT_MASS>
485.100519

> <PUBCHEM_MOLECULAR_FORMULA>
C21H19N5O7S

> <PUBCHEM_MOLECULAR_WEIGHT>
485.46986

> <PUBCHEM_OPENEYE_CAN_SMILES>
COC1=NC(=NC(=C1)NS(=O)(=O)C2=CC=C(C=C2)NC(=O)C=CC3=CC=C(C=C3)[N+](=O)[O-])OC

> <PUBCHEM_OPENEYE_ISO_SMILES>
COC1=NC(=NC(=C1)NS(=O)(=O)C2=CC=C(C=C2)NC(=O)/C=C/C3=CC=C(C=C3)[N+](=O)[O-])OC

> <PUBCHEM_CACTVS_TPSA>
174

> <PUBCHEM_MONOISOTOPIC_WEIGHT>
485.100519

> <PUBCHEM_TOTAL_CHARGE>
0

> <PUBCHEM_HEAVY_ATOM_COUNT>
34

> <PUBCHEM_ATOM_DEF_STEREO_COUNT>
0

> <PUBCHEM_ATOM_UDEF_STEREO_COUNT>
0

> <PUBCHEM_BOND_DEF_STEREO_COUNT>
1

> <PUBCHEM_BOND_UDEF_STEREO_COUNT>
0

> <PUBCHEM_ISOTOPIC_ATOM_COUNT>
0

> <PUBCHEM_COMPONENT_COUNT>
1

> <PUBCHEM_CACTVS_TAUTO_COUNT>
6

> <PUBCHEM_COORDINATE_TYPE>
1
5
255

> <PUBCHEM_BONDANNOTATIONS>
11  20  8
11  29  8
12  25  8
12  29  8
14  15  8
14  16  8
15  18  8
16  19  8
17  18  8
17  19  8
20  21  8
21  25  8
23  27  8
23  28  8
27  31  8
28  32  8
30  31  8
30  32  8

$$$$
5972871
  -OEChem-06011308012D

 29 30  0     0  0  0  0  0  0999 V2000
    2.8660   -3.7500    0.0000 O   0  5  0  0  0  0  0  0  0  0  0  0
    2.8660   -2.7500    0.0000 N   0  3  0  0  0  0  0  0  0  0  0  0
    3.7320    0.7500    0.0000 C   0  0  0  0  0  0  0  0  0  0  0  0
    3.7320    1.7500    0.0000 C   0  0  0  0  0  0  0  0  0  0  0  0
    3.7320   -1.2500    0.0000 C   0  0  0  0  0  0  0  0  0  0  0  0
    2.8660    0.2500    0.0000 C   0  0  0  0  0  0  0  0  0  0  0  0
    4.5981    0.2500    0.0000 C   0  0  0  0  0  0  0  0  0  0  0  0
    2.8660   -0.7500    0.0000 C   0  0  0  0  0  0  0  0  0  0  0  0
    4.5981   -0.7500    0.0000 C   0  0  0  0  0  0  0  0  0  0  0  0
    4.5981    2.2500    0.0000 C   0  0  0  0  0  0  0  0  0  0  0  0
    2.8660    2.2500    0.0000 C   0  0  0  0  0  0  0  0  0  0  0  0
    3.7320   -2.2500    0.0000 C   0  0  0  0  0  0  0  0  0  0  0  0
    4.5981    3.2500    0.0000 C   0  0  0  0  0  0  0  0  0  0  0  0
    2.8660    3.2500    0.0000 C   0  0  0  0  0  0  0  0  0  0  0  0
    3.7320    3.7500    0.0000 C   0  0  0  0  0  0  0  0  0  0  0  0
    2.0000   -2.2500    0.0000 C   0  0  0  0  0  0  0  0  0  0  0  0
    2.3291    0.5600    0.0000 H   0  0  0  0  0  0  0  0  0  0  0  0
    5.1350    0.5600    0.0000 H   0  0  0  0  0  0  0  0  0  0  0  0
    2.3291   -1.0600    0.0000 H   0  0  0  0  0  0  0  0  0  0  0  0
    5.1350   -1.0600    0.0000 H   0  0  0  0  0  0  0  0  0  0  0  0
    5.1350    1.9400    0.0000 H   0  0  0  0  0  0  0  0  0  0  0  0
    2.3291    1.9400    0.0000 H   0  0  0  0  0  0  0  0  0  0  0  0
    4.2690   -2.5600    0.0000 H   0  0  0  0  0  0  0  0  0  0  0  0
    5.1350    3.5600    0.0000 H   0  0  0  0  0  0  0  0  0  0  0  0
    2.3291    3.5600    0.0000 H   0  0  0  0  0  0  0  0  0  0  0  0
    3.7320    4.3700    0.0000 H   0  0  0  0  0  0  0  0  0  0  0  0
    2.3100   -1.7131    0.0000 H   0  0  0  0  0  0  0  0  0  0  0  0
    1.4631   -1.9400    0.0000 H   0  0  0  0  0  0  0  0  0  0  0  0
    1.6900   -2.7869    0.0000 H   0  0  0  0  0  0  0  0  0  0  0  0
  1  2  1  0  0  0  0
  2 12  2  0  0  0  0
  2 16  1  0  0  0  0
  3  4  1  0  0  0  0
  3  6  2  0  0  0  0
  3  7  1  0  0  0  0
  4 10  2  0  0  0  0
  4 11  1  0  0  0  0
  5  8  2  0  0  0  0
  5  9  1  0  0  0  0
  5 12  1  0  0  0  0
  6  8  1  0  0  0  0
  6 17  1  0  0  0  0
  7  9  2  0  0  0  0
  7 18  1  0  0  0  0
  8 19  1  0  0  0  0
  9 20  1  0  0  0  0
 10 13  1  0  0  0  0
 10 21  1  0  0  0  0
 11 14  2  0  0  0  0
 11 22  1  0  0  0  0
 12 23  1  0  0  0  0
 13 15  2  0  0  0  0
 13 24  1  0  0  0  0
 14 15  1  0  0  0  0
 14 25  1  0  0  0  0
 15 26  1  0  0  0  0
 16 27  1  0  0  0  0
 16 28  1  0  0  0  0
 16 29  1  0  0  0  0
M  CHG  2   1  -1   2   1
M  END
> <PUBCHEM_COMPOUND_CID>
5972871

> <PUBCHEM_COMPOUND_CANONICALIZED>
1

> <PUBCHEM_CACTVS_COMPLEXITY>
235

> <PUBCHEM_CACTVS_HBOND_ACCEPTOR>
1

> <PUBCHEM_CACTVS_HBOND_DONOR>
0

> <PUBCHEM_CACTVS_ROTATABLE_BOND>
2

> <PUBCHEM_CACTVS_SUBSKEYS>
AAADccByIAAAAAAAAAAAAAAAAAAAAAAAAAAwYAAAAAAAAAABQAAAHAAEAAAADADBGAQyAIIQAACgAjBjBAACAAAgAAAIiAAgAJgIIKKAERCAIAAggAAIiAcAgMAOwAAAAAAAAACAAAAAAAAAAAAAAAAAAA==

> <PUBCHEM_IUPAC_OPENEYE_NAME>
N-methyl-1-(4-phenylphenyl)methanimine oxide

> <PUBCHEM_IUPAC_CAS_NAME>
N-methyl-1-(4-phenylphenyl)methanimine oxide

> <PUBCHEM_IUPAC_NAME>
N-methyl-1-(4-phenylphenyl)methanimine oxide

> <PUBCHEM_IUPAC_SYSTEMATIC_NAME>
N-methyl-1-(4-phenylphenyl)methanimine oxide

> <PUBCHEM_IUPAC_TRADITIONAL_NAME>
N-methyl-1-(4-phenylphenyl)methanimine oxide

> <PUBCHEM_IUPAC_INCHI>
InChI=1S/C14H13NO/c1-15(16)11-12-7-9-14(10-8-12)13-5-3-2-4-6-13/h2-11H,1H3/b15-11+

> <PUBCHEM_IUPAC_INCHIKEY>
BDTHFCOOVXAIRV-RVDMUPIBSA-N

> <PUBCHEM_XLOGP3>
3.1

> <PUBCHEM_EXACT_MASS>
211.099714

> <PUBCHEM_MOLECULAR_FORMULA>
C14H13NO

> <PUBCHEM_MOLECULAR_WEIGHT>
211.25912

> <PUBCHEM_OPENEYE_CAN_SMILES>
C[N+](=CC1=CC=C(C=C1)C2=CC=CC=C2)[O-]

> <PUBCHEM_OPENEYE_ISO_SMILES>
C/[N+](=C\C1=CC=C(C=C1)C2=CC=CC=C2)/[O-]

> <PUBCHEM_CACTVS_TPSA>
28.8

> <PUBCHEM_MONOISOTOPIC_WEIGHT>
211.099714

> <PUBCHEM_TOTAL_CHARGE>
0

> <PUBCHEM_HEAVY_ATOM_COUNT>
16

> <PUBCHEM_ATOM_DEF_STEREO_COUNT>
0

> <PUBCHEM_ATOM_UDEF_STEREO_COUNT>
0

> <PUBCHEM_BOND_DEF_STEREO_COUNT>
1

> <PUBCHEM_BOND_UDEF_STEREO_COUNT>
0

> <PUBCHEM_ISOTOPIC_ATOM_COUNT>
0

> <PUBCHEM_COMPONENT_COUNT>
1

> <PUBCHEM_CACTVS_TAUTO_COUNT>
1

> <PUBCHEM_COORDINATE_TYPE>
1
5
255

> <PUBCHEM_BONDANNOTATIONS>
10  13  8
11  14  8
13  15  8
14  15  8
3  6  8
3  7  8
4  10  8
4  11  8
5  8  8
5  9  8
6  8  8
7  9  8

$$$$
