45277875
  -OEChem-03221309382D

 21 22  0     0  0  0  0  0  0999 V2000
    4.2690   -1.0000    0.0000 O   0  0  0  0  0  0  0  0  0  0  0  0
    6.8671   -0.5000    0.0000 C   0  0  0  0  0  0  0  0  0  0  0  0
    6.8671    0.5000    0.0000 C   0  0  0  0  0  0  0  0  0  0  0  0
    6.0010   -1.0000    0.0000 C   0  0  0  0  0  0  0  0  0  0  0  0
    6.0010    1.0000    0.0000 C   0  0  0  0  0  0  0  0  0  0  0  0
    7.7610   -1.0347    0.0000 C   0  0  0  0  0  0  0  0  0  0  0  0
    7.7610    1.0347    0.0000 C   0  0  0  0  0  0  0  0  0  0  0  0
    5.1350   -0.5000    0.0000 C   0  0  0  0  0  0  0  0  0  0  0  0
    5.1350    0.5000    0.0000 C   0  0  0  0  0  0  0  0  0  0  0  0
    8.6671   -0.5208    0.0000 C   0  0  0  0  0  0  0  0  0  0  0  0
    8.6671    0.5208    0.0000 C   0  0  0  0  0  0  0  0  0  0  0  0
    3.4030   -0.5000    0.0000 C   0  0  0  0  0  0  0  0  0  0  0  0
    2.5369    0.0000    0.0000 C   0  0  0  0  0  0  0  0  0  0  0  0
    6.0010   -1.6200    0.0000 H   0  0  0  0  0  0  0  0  0  0  0  0
    6.0010    1.6200    0.0000 H   0  0  0  0  0  0  0  0  0  0  0  0
    7.7538   -1.6546    0.0000 H   0  0  0  0  0  0  0  0  0  0  0  0
    7.7538    1.6546    0.0000 H   0  0  0  0  0  0  0  0  0  0  0  0
    4.5981    0.8100    0.0000 H   0  0  0  0  0  0  0  0  0  0  0  0
    9.2028   -0.8329    0.0000 H   0  0  0  0  0  0  0  0  0  0  0  0
    9.2028    0.8329    0.0000 H   0  0  0  0  0  0  0  0  0  0  0  0
    2.0000    0.3100    0.0000 H   0  0  0  0  0  0  0  0  0  0  0  0
  1  8  1  0  0  0  0
  1 12  1  0  0  0  0
  2  3  1  0  0  0  0
  2  4  1  0  0  0  0
  2  6  2  0  0  0  0
  3  5  1  0  0  0  0
  3  7  2  0  0  0  0
  4  8  2  0  0  0  0
  4 14  1  0  0  0  0
  5  9  2  0  0  0  0
  5 15  1  0  0  0  0
  6 10  1  0  0  0  0
  6 16  1  0  0  0  0
  7 11  1  0  0  0  0
  7 17  1  0  0  0  0
  8  9  1  0  0  0  0
  9 18  1  0  0  0  0
 10 11  2  0  0  0  0
 10 19  1  0  0  0  0
 11 20  1  0  0  0  0
 12 13  3  0  0  0  0
 13 21  1  0  0  0  0
M  END
> <PUBCHEM_COMPOUND_CID>
45277875

> <PUBCHEM_COMPOUND_CANONICALIZED>
1

> <PUBCHEM_CACTVS_COMPLEXITY>
212

> <PUBCHEM_CACTVS_HBOND_ACCEPTOR>
1

> <PUBCHEM_CACTVS_HBOND_DONOR>
0

> <PUBCHEM_CACTVS_ROTATABLE_BOND>
2

> <PUBCHEM_CACTVS_SUBSKEYS>
AAADccBwIAAAAAAAAAAAAAAAAAAAAAAAAAAwYAAAAAAAAADBUAAAGgAAAAAADASAmAAwBsAABADACiBCAAACCAAgIAAIiAAGCIgMJiKEMRqAMCAkwBEIqAeAwLAOoAABAAAQAABAAAIAACAAAAAAAAAAAA==

> <PUBCHEM_IUPAC_OPENEYE_NAME>
2-ethynoxynaphthalene

> <PUBCHEM_IUPAC_CAS_NAME>
2-ethynoxynaphthalene

> <PUBCHEM_IUPAC_NAME>
2-ethynoxynaphthalene

> <PUBCHEM_IUPAC_SYSTEMATIC_NAME>
2-ethynoxynaphthalene

> <PUBCHEM_IUPAC_TRADITIONAL_NAME>
2-ethynoxynaphthalene

> <PUBCHEM_IUPAC_INCHI>
InChI=1S/C12H8O/c1-2-13-12-8-7-10-5-3-4-6-11(10)9-12/h1,3-9H

> <PUBCHEM_IUPAC_INCHIKEY>
SNSKQRXQFQMQNM-UHFFFAOYSA-N

> <PUBCHEM_XLOGP3>
3.8

> <PUBCHEM_EXACT_MASS>
168.057515

> <PUBCHEM_MOLECULAR_FORMULA>
C12H8O

> <PUBCHEM_MOLECULAR_WEIGHT>
168.19132

> <PUBCHEM_OPENEYE_CAN_SMILES>
C#COC1=CC2=CC=CC=C2C=C1

> <PUBCHEM_OPENEYE_ISO_SMILES>
C#COC1=CC2=CC=CC=C2C=C1

> <PUBCHEM_CACTVS_TPSA>
9.2

> <PUBCHEM_MONOISOTOPIC_WEIGHT>
168.057515

> <PUBCHEM_TOTAL_CHARGE>
0

> <PUBCHEM_HEAVY_ATOM_COUNT>
13

> <PUBCHEM_ATOM_DEF_STEREO_COUNT>
0

> <PUBCHEM_ATOM_UDEF_STEREO_COUNT>
0

> <PUBCHEM_BOND_DEF_STEREO_COUNT>
0

> <PUBCHEM_BOND_UDEF_STEREO_COUNT>
0

> <PUBCHEM_ISOTOPIC_ATOM_COUNT>
0

> <PUBCHEM_COMPONENT_COUNT>
1

> <PUBCHEM_CACTVS_TAUTO_COUNT>
1

> <PUBCHEM_COORDINATE_TYPE>
1
5
255

> <PUBCHEM_BONDANNOTATIONS>
10  11  8
2  3  8
2  4  8
2  6  8
3  5  8
3  7  8
4  8  8
5  9  8
6  10  8
7  11  8
8  9  8

$$$$
45281126
  -OEChem-03221309382D

 60 63  0     1  0  0  0  0  0999 V2000
    6.4347    3.9303    0.0000 O   0  0  0  0  0  0  0  0  0  0  0  0
    7.4516    1.5509    0.0000 O   0  0  0  0  0  0  0  0  0  0  0  0
    8.9073    3.1677    0.0000 O   0  0  0  0  0  0  0  0  0  0  0  0
   10.6343    6.2542    0.0000 O   0  0  0  0  0  0  0  0  0  0  0  0
    4.5981   -3.0642    0.0000 O   0  0  0  0  0  0  0  0  0  0  0  0
    4.5981   -5.0642    0.0000 O   0  0  0  0  0  0  0  0  0  0  0  0
    7.8195    5.0518    0.0000 N   0  0  0  0  0  0  0  0  0  0  0  0
    5.4641    1.4358    0.0000 N   0  0  0  0  0  0  0  0  0  0  0  0
    8.7977    5.2597    0.0000 N   0  0  0  0  0  0  0  0  0  0  0  0
    7.9887    6.6609    0.0000 N   0  0  0  0  0  0  0  0  0  0  0  0
    9.7682    7.7542    0.0000 N   0  0  0  0  0  0  0  0  0  0  0  0
    2.8660   -5.0642    0.0000 N   0  0  0  0  0  0  0  0  0  0  0  0
    3.7320   -6.5642    0.0000 N   0  0  0  0  0  0  0  0  0  0  0  0
    6.3301    2.9358    0.0000 C   0  0  1  0  0  0  0  0  0  0  0  0
    7.2437    2.5291    0.0000 C   0  0  2  0  0  0  0  0  0  0  0  0
    7.9128    3.2722    0.0000 C   0  0  2  0  0  0  0  0  0  0  0  0
    7.4128    4.1382    0.0000 C   0  0  1  0  0  0  0  0  0  0  0  0
    5.4641    2.4358    0.0000 C   0  0  0  0  0  0  0  0  0  0  0  0
    4.5981    0.9358    0.0000 C   0  0  0  0  0  0  0  0  0  0  0  0
    7.3195    5.9178    0.0000 C   0  0  0  0  0  0  0  0  0  0  0  0
    8.9022    6.2542    0.0000 C   0  0  0  0  0  0  0  0  0  0  0  0
    4.5981   -0.0642    0.0000 C   0  0  0  0  0  0  0  0  0  0  0  0
    3.7320   -0.5642    0.0000 C   0  0  0  0  0  0  0  0  0  0  0  0
    5.4641   -0.5642    0.0000 C   0  0  0  0  0  0  0  0  0  0  0  0
    9.7682    6.7542    0.0000 C   0  0  0  0  0  0  0  0  0  0  0  0
    3.7320   -1.5642    0.0000 C   0  0  0  0  0  0  0  0  0  0  0  0
    5.4641   -1.5642    0.0000 C   0  0  0  0  0  0  0  0  0  0  0  0
    4.5981   -2.0642    0.0000 C   0  0  0  0  0  0  0  0  0  0  0  0
    3.7320   -3.5642    0.0000 C   0  0  0  0  0  0  0  0  0  0  0  0
    3.7320   -4.5642    0.0000 C   0  0  0  0  0  0  0  0  0  0  0  0
    2.8660   -6.0642    0.0000 C   0  0  0  0  0  0  0  0  0  0  0  0
    2.0000   -6.5642    0.0000 C   0  0  0  0  0  0  0  0  0  0  0  0
    2.0000   -7.5642    0.0000 C   0  0  0  0  0  0  0  0  0  0  0  0
    3.7320   -7.5642    0.0000 C   0  0  0  0  0  0  0  0  0  0  0  0
    2.8660   -8.0642    0.0000 C   0  0  0  0  0  0  0  0  0  0  0  0
    5.8102    3.2735    0.0000 H   0  0  0  0  0  0  0  0  0  0  0  0
    6.7618    2.1389    0.0000 H   0  0  0  0  0  0  0  0  0  0  0  0
    8.1350    2.6934    0.0000 H   0  0  0  0  0  0  0  0  0  0  0  0
    8.0320    4.1707    0.0000 H   0  0  0  0  0  0  0  0  0  0  0  0
    5.2520    3.0184    0.0000 H   0  0  0  0  0  0  0  0  0  0  0  0
    4.8535    2.3281    0.0000 H   0  0  0  0  0  0  0  0  0  0  0  0
    6.0010    1.1258    0.0000 H   0  0  0  0  0  0  0  0  0  0  0  0
    8.0412    1.3593    0.0000 H   0  0  0  0  0  0  0  0  0  0  0  0
    9.1595    2.6013    0.0000 H   0  0  0  0  0  0  0  0  0  0  0  0
    4.3860    1.5184    0.0000 H   0  0  0  0  0  0  0  0  0  0  0  0
    3.9875    0.8281    0.0000 H   0  0  0  0  0  0  0  0  0  0  0  0
    6.7029    5.9826    0.0000 H   0  0  0  0  0  0  0  0  0  0  0  0
    3.1951   -0.2542    0.0000 H   0  0  0  0  0  0  0  0  0  0  0  0
    6.0010   -0.2542    0.0000 H   0  0  0  0  0  0  0  0  0  0  0  0
    3.1951   -1.8742    0.0000 H   0  0  0  0  0  0  0  0  0  0  0  0
    6.0010   -1.8742    0.0000 H   0  0  0  0  0  0  0  0  0  0  0  0
   10.3052    8.0642    0.0000 H   0  0  0  0  0  0  0  0  0  0  0  0
    9.2313    8.0642    0.0000 H   0  0  0  0  0  0  0  0  0  0  0  0
    3.5200   -2.9816    0.0000 H   0  0  0  0  0  0  0  0  0  0  0  0
    3.1215   -3.6719    0.0000 H   0  0  0  0  0  0  0  0  0  0  0  0
    2.3291   -4.7542    0.0000 H   0  0  0  0  0  0  0  0  0  0  0  0
    1.4631   -6.2542    0.0000 H   0  0  0  0  0  0  0  0  0  0  0  0
    1.4631   -7.8742    0.0000 H   0  0  0  0  0  0  0  0  0  0  0  0
    4.2690   -7.8742    0.0000 H   0  0  0  0  0  0  0  0  0  0  0  0
    2.8660   -8.6842    0.0000 H   0  0  0  0  0  0  0  0  0  0  0  0
  1 14  1  0  0  0  0
  1 17  1  0  0  0  0
 15  2  1  6  0  0  0
  2 43  1  0  0  0  0
 16  3  1  6  0  0  0
  3 44  1  0  0  0  0
  4 25  2  0  0  0  0
  5 28  1  0  0  0  0
  5 29  1  0  0  0  0
  6 30  2  0  0  0  0
  7  9  1  0  0  0  0
 17  7  1  1  0  0  0
  7 20  1  0  0  0  0
  8 18  1  0  0  0  0
  8 19  1  0  0  0  0
  8 42  1  0  0  0  0
  9 21  2  0  0  0  0
 10 20  2  0  0  0  0
 10 21  1  0  0  0  0
 11 25  1  0  0  0  0
 11 52  1  0  0  0  0
 11 53  1  0  0  0  0
 12 30  1  0  0  0  0
 12 31  1  0  0  0  0
 12 56  1  0  0  0  0
 13 31  1  0  0  0  0
 13 34  2  0  0  0  0
 14 15  1  0  0  0  0
 14 18  1  1  0  0  0
 14 36  1  0  0  0  0
 15 16  1  0  0  0  0
 15 37  1  0  0  0  0
 16 17  1  0  0  0  0
 16 38  1  0  0  0  0
 17 39  1  0  0  0  0
 18 40  1  0  0  0  0
 18 41  1  0  0  0  0
 19 22  1  0  0  0  0
 19 45  1  0  0  0  0
 19 46  1  0  0  0  0
 20 47  1  0  0  0  0
 21 25  1  0  0  0  0
 22 23  2  0  0  0  0
 22 24  1  0  0  0  0
 23 26  1  0  0  0  0
 23 48  1  0  0  0  0
 24 27  2  0  0  0  0
 24 49  1  0  0  0  0
 26 28  2  0  0  0  0
 26 50  1  0  0  0  0
 27 28  1  0  0  0  0
 27 51  1  0  0  0  0
 29 30  1  0  0  0  0
 29 54  1  0  0  0  0
 29 55  1  0  0  0  0
 31 32  2  0  0  0  0
 32 33  1  0  0  0  0
 32 57  1  0  0  0  0
 33 35  2  0  0  0  0
 33 58  1  0  0  0  0
 34 35  1  0  0  0  0
 34 59  1  0  0  0  0
 35 60  1  0  0  0  0
M  END
> <PUBCHEM_COMPOUND_CID>
45281126

> <PUBCHEM_COMPOUND_CANONICALIZED>
1

> <PUBCHEM_CACTVS_COMPLEXITY>
710

> <PUBCHEM_CACTVS_HBOND_ACCEPTOR>
10

> <PUBCHEM_CACTVS_HBOND_DONOR>
5

> <PUBCHEM_CACTVS_ROTATABLE_BOND>
10

> <PUBCHEM_CACTVS_SUBSKEYS>
AAADceB7uAAAAAAAAAAAAAAAAAAAAWJAAAA8QAAAAAAAAAAB8AAAHgAYCAAADBThmwY9tpbIFgCqAjN3dAKSiCszoqAd2KD+bJiPfuLEub+feCjv3RPb6Cew0AIOIAAAAAAAAABAAAAAAAAAAAAAAAAAAA==

> <PUBCHEM_IUPAC_OPENEYE_NAME>
1-[(2R,3R,4S,5R)-3,4-dihydroxy-5-[[[4-[2-oxo-2-(2-pyridylamino)ethoxy]phenyl]methylamino]methyl]tetrahydrofuran-2-yl]-1,2,4-triazole-3-carboxamide

> <PUBCHEM_IUPAC_CAS_NAME>
1-[(2R,3R,4S,5R)-3,4-dihydroxy-5-[[[4-[2-oxo-2-(2-pyridinylamino)ethoxy]phenyl]methylamino]methyl]-2-oxolanyl]-1,2,4-triazole-3-carboxamide

> <PUBCHEM_IUPAC_NAME>
1-[(2R,3R,4S,5R)-3,4-dihydroxy-5-[[[4-[2-oxo-2-(pyridin-2-ylamino)ethoxy]phenyl]methylamino]methyl]oxolan-2-yl]-1,2,4-triazole-3-carboxamide

> <PUBCHEM_IUPAC_SYSTEMATIC_NAME>
1-[(2R,3R,4S,5R)-3,4-bis(oxidanyl)-5-[[[4-[2-oxidanylidene-2-(pyridin-2-ylamino)ethoxy]phenyl]methylamino]methyl]oxolan-2-yl]-1,2,4-triazole-3-carboxamide

> <PUBCHEM_IUPAC_TRADITIONAL_NAME>
1-[(2R,3R,4S,5R)-3,4-dihydroxy-5-[[[4-[2-keto-2-(2-pyridylamino)ethoxy]benzyl]amino]methyl]tetrahydrofuran-2-yl]-1,2,4-triazole-3-carboxamide

> <PUBCHEM_IUPAC_INCHI>
InChI=1S/C22H25N7O6/c23-20(33)21-26-12-29(28-21)22-19(32)18(31)15(35-22)10-24-9-13-4-6-14(7-5-13)34-11-17(30)27-16-3-1-2-8-25-16/h1-8,12,15,18-19,22,24,31-32H,9-11H2,(H2,23,33)(H,25,27,30)/t15-,18-,19-,22-/m1/s1

> <PUBCHEM_IUPAC_INCHIKEY>
ZTYFLSWNCGGFBD-CIVUBGFFSA-N

> <PUBCHEM_XLOGP3>
0

> <PUBCHEM_EXACT_MASS>
483.186632

> <PUBCHEM_MOLECULAR_FORMULA>
C22H25N7O6

> <PUBCHEM_MOLECULAR_WEIGHT>
483.4772

> <PUBCHEM_OPENEYE_CAN_SMILES>
C1=CC=NC(=C1)NC(=O)COC2=CC=C(C=C2)CNCC3C(C(C(O3)N4C=NC(=N4)C(=O)N)O)O

> <PUBCHEM_OPENEYE_ISO_SMILES>
C1=CC=NC(=C1)NC(=O)COC2=CC=C(C=C2)CNC[C@@H]3[C@H]([C@H]([C@@H](O3)N4C=NC(=N4)C(=O)N)O)O

> <PUBCHEM_CACTVS_TPSA>
187

> <PUBCHEM_MONOISOTOPIC_WEIGHT>
483.186632

> <PUBCHEM_TOTAL_CHARGE>
0

> <PUBCHEM_HEAVY_ATOM_COUNT>
35

> <PUBCHEM_ATOM_DEF_STEREO_COUNT>
4

> <PUBCHEM_ATOM_UDEF_STEREO_COUNT>
0

> <PUBCHEM_BOND_DEF_STEREO_COUNT>
0

> <PUBCHEM_BOND_UDEF_STEREO_COUNT>
0

> <PUBCHEM_ISOTOPIC_ATOM_COUNT>
0

> <PUBCHEM_COMPONENT_COUNT>
1

> <PUBCHEM_CACTVS_TAUTO_COUNT>
10

> <PUBCHEM_COORDINATE_TYPE>
1
5
255

> <PUBCHEM_BONDANNOTATIONS>
10  20  8
10  21  8
13  31  8
13  34  8
14  18  5
15  2  6
22  23  8
22  24  8
23  26  8
24  27  8
26  28  8
27  28  8
16  3  6
31  32  8
32  33  8
33  35  8
34  35  8
17  7  5
7  20  8
7  9  8
9  21  8

$$$$
45281136
  -OEChem-03221309382D

 51 53  0     1  0  0  0  0  0999 V2000
    8.0362    4.8142    0.0000 S   0  0  0  0  0  0  0  0  0  0  0  0
    6.1996   -2.1803    0.0000 O   0  0  0  0  0  0  0  0  0  0  0  0
    5.1827    0.1991    0.0000 O   0  0  0  0  0  0  0  0  0  0  0  0
    3.7269   -1.4177    0.0000 O   0  0  0  0  0  0  0  0  0  0  0  0
    2.0000   -4.5042    0.0000 O   0  0  0  0  0  0  0  0  0  0  0  0
    9.0362    4.8142    0.0000 O   0  0  0  0  0  0  0  0  0  0  0  0
    7.0362    4.8142    0.0000 O   0  0  0  0  0  0  0  0  0  0  0  0
    4.8147   -3.3018    0.0000 N   0  0  0  0  0  0  0  0  0  0  0  0
    7.1702    0.3142    0.0000 N   0  0  0  0  0  0  0  0  0  0  0  0
    3.8366   -3.5097    0.0000 N   0  0  0  0  0  0  0  0  0  0  0  0
    4.6456   -4.9109    0.0000 N   0  0  0  0  0  0  0  0  0  0  0  0
    8.0362    5.8142    0.0000 N   0  0  0  0  0  0  0  0  0  0  0  0
    2.8660   -6.0042    0.0000 N   0  0  0  0  0  0  0  0  0  0  0  0
    6.3041   -1.1858    0.0000 C   0  0  1  0  0  0  0  0  0  0  0  0
    5.3906   -0.7791    0.0000 C   0  0  2  0  0  0  0  0  0  0  0  0
    4.7215   -1.5222    0.0000 C   0  0  2  0  0  0  0  0  0  0  0  0
    5.2215   -2.3882    0.0000 C   0  0  1  0  0  0  0  0  0  0  0  0
    7.1702   -0.6858    0.0000 C   0  0  0  0  0  0  0  0  0  0  0  0
    8.0362    0.8142    0.0000 C   0  0  0  0  0  0  0  0  0  0  0  0
    5.3147   -4.1678    0.0000 C   0  0  0  0  0  0  0  0  0  0  0  0
    8.0362    1.8142    0.0000 C   0  0  0  0  0  0  0  0  0  0  0  0
    3.7320   -4.5042    0.0000 C   0  0  0  0  0  0  0  0  0  0  0  0
    8.9022    2.3142    0.0000 C   0  0  0  0  0  0  0  0  0  0  0  0
    7.1702    2.3142    0.0000 C   0  0  0  0  0  0  0  0  0  0  0  0
    8.0362    3.8142    0.0000 C   0  0  0  0  0  0  0  0  0  0  0  0
    8.9022    3.3142    0.0000 C   0  0  0  0  0  0  0  0  0  0  0  0
    7.1702    3.3142    0.0000 C   0  0  0  0  0  0  0  0  0  0  0  0
    2.8660   -5.0042    0.0000 C   0  0  0  0  0  0  0  0  0  0  0  0
    8.9022    6.3142    0.0000 C   0  0  0  0  0  0  0  0  0  0  0  0
    6.8241   -1.5235    0.0000 H   0  0  0  0  0  0  0  0  0  0  0  0
    4.7917   -0.6186    0.0000 H   0  0  0  0  0  0  0  0  0  0  0  0
    4.3838   -2.0422    0.0000 H   0  0  0  0  0  0  0  0  0  0  0  0
    5.6116   -2.8701    0.0000 H   0  0  0  0  0  0  0  0  0  0  0  0
    7.3822   -1.2684    0.0000 H   0  0  0  0  0  0  0  0  0  0  0  0
    7.7808   -0.5781    0.0000 H   0  0  0  0  0  0  0  0  0  0  0  0
    6.6332    0.6242    0.0000 H   0  0  0  0  0  0  0  0  0  0  0  0
    4.5930    0.3907    0.0000 H   0  0  0  0  0  0  0  0  0  0  0  0
    3.4748   -0.8513    0.0000 H   0  0  0  0  0  0  0  0  0  0  0  0
    8.2482    0.2316    0.0000 H   0  0  0  0  0  0  0  0  0  0  0  0
    8.6468    0.9219    0.0000 H   0  0  0  0  0  0  0  0  0  0  0  0
    5.9313   -4.2326    0.0000 H   0  0  0  0  0  0  0  0  0  0  0  0
    9.4392    2.0042    0.0000 H   0  0  0  0  0  0  0  0  0  0  0  0
    6.6332    2.0042    0.0000 H   0  0  0  0  0  0  0  0  0  0  0  0
    9.4392    3.6242    0.0000 H   0  0  0  0  0  0  0  0  0  0  0  0
    6.6332    3.6242    0.0000 H   0  0  0  0  0  0  0  0  0  0  0  0
    7.4992    6.1242    0.0000 H   0  0  0  0  0  0  0  0  0  0  0  0
    2.3291   -6.3142    0.0000 H   0  0  0  0  0  0  0  0  0  0  0  0
    3.4030   -6.3142    0.0000 H   0  0  0  0  0  0  0  0  0  0  0  0
    9.2122    5.7773    0.0000 H   0  0  0  0  0  0  0  0  0  0  0  0
    9.4392    6.6242    0.0000 H   0  0  0  0  0  0  0  0  0  0  0  0
    8.5922    6.8511    0.0000 H   0  0  0  0  0  0  0  0  0  0  0  0
  1  6  2  0  0  0  0
  1  7  2  0  0  0  0
  1 12  1  0  0  0  0
  1 25  1  0  0  0  0
  2 14  1  0  0  0  0
  2 17  1  0  0  0  0
 15  3  1  6  0  0  0
  3 37  1  0  0  0  0
 16  4  1  6  0  0  0
  4 38  1  0  0  0  0
  5 28  2  0  0  0  0
  8 10  1  0  0  0  0
 17  8  1  1  0  0  0
  8 20  1  0  0  0  0
  9 18  1  0  0  0  0
  9 19  1  0  0  0  0
  9 36  1  0  0  0  0
 10 22  2  0  0  0  0
 11 20  2  0  0  0  0
 11 22  1  0  0  0  0
 12 29  1  0  0  0  0
 12 46  1  0  0  0  0
 13 28  1  0  0  0  0
 13 47  1  0  0  0  0
 13 48  1  0  0  0  0
 14 15  1  0  0  0  0
 14 18  1  1  0  0  0
 14 30  1  0  0  0  0
 15 16  1  0  0  0  0
 15 31  1  0  0  0  0
 16 17  1  0  0  0  0
 16 32  1  0  0  0  0
 17 33  1  0  0  0  0
 18 34  1  0  0  0  0
 18 35  1  0  0  0  0
 19 21  1  0  0  0  0
 19 39  1  0  0  0  0
 19 40  1  0  0  0  0
 20 41  1  0  0  0  0
 21 23  2  0  0  0  0
 21 24  1  0  0  0  0
 22 28  1  0  0  0  0
 23 26  1  0  0  0  0
 23 42  1  0  0  0  0
 24 27  2  0  0  0  0
 24 43  1  0  0  0  0
 25 26  2  0  0  0  0
 25 27  1  0  0  0  0
 26 44  1  0  0  0  0
 27 45  1  0  0  0  0
 29 49  1  0  0  0  0
 29 50  1  0  0  0  0
 29 51  1  0  0  0  0
M  END
> <PUBCHEM_COMPOUND_CID>
45281136

> <PUBCHEM_COMPOUND_CANONICALIZED>
1

> <PUBCHEM_CACTVS_COMPLEXITY>
667

> <PUBCHEM_CACTVS_HBOND_ACCEPTOR>
10

> <PUBCHEM_CACTVS_HBOND_DONOR>
5

> <PUBCHEM_CACTVS_ROTATABLE_BOND>
8

> <PUBCHEM_CACTVS_SUBSKEYS>
AAADceB7uABAAAAAAAAAAAAAAAAAAWJAAAAwAAAAAAAAAAABwAAAHgQYSAAADBTh2wY3EYbIFgKqAiNzNHDSgBsygKAdyJiIBIiLeCKAmTGfYAhvmAKbiAewkAIOEAAAAAAAAAAgAAAAAAAAAAAAAAAAAA==

> <PUBCHEM_IUPAC_OPENEYE_NAME>
1-[(2R,3R,4S,5R)-3,4-dihydroxy-5-[[[4-(methylsulfamoyl)phenyl]methylamino]methyl]tetrahydrofuran-2-yl]-1,2,4-triazole-3-carboxamide

> <PUBCHEM_IUPAC_CAS_NAME>
1-[(2R,3R,4S,5R)-3,4-dihydroxy-5-[[[4-(methylsulfamoyl)phenyl]methylamino]methyl]-2-oxolanyl]-1,2,4-triazole-3-carboxamide

> <PUBCHEM_IUPAC_NAME>
1-[(2R,3R,4S,5R)-3,4-dihydroxy-5-[[[4-(methylsulfamoyl)phenyl]methylamino]methyl]oxolan-2-yl]-1,2,4-triazole-3-carboxamide

> <PUBCHEM_IUPAC_SYSTEMATIC_NAME>
1-[(2R,3R,4S,5R)-5-[[[4-(methylsulfamoyl)phenyl]methylamino]methyl]-3,4-bis(oxidanyl)oxolan-2-yl]-1,2,4-triazole-3-carboxamide

> <PUBCHEM_IUPAC_TRADITIONAL_NAME>
1-[(2R,3R,4S,5R)-3,4-dihydroxy-5-[[[4-(methylsulfamoyl)benzyl]amino]methyl]tetrahydrofuran-2-yl]-1,2,4-triazole-3-carboxamide

> <PUBCHEM_IUPAC_INCHI>
InChI=1S/C16H22N6O6S/c1-18-29(26,27)10-4-2-9(3-5-10)6-19-7-11-12(23)13(24)16(28-11)22-8-20-15(21-22)14(17)25/h2-5,8,11-13,16,18-19,23-24H,6-7H2,1H3,(H2,17,25)/t11-,12-,13-,16-/m1/s1

> <PUBCHEM_IUPAC_INCHIKEY>
SPMRJVOZQKMGOP-BRXULGCHSA-N

> <PUBCHEM_XLOGP3>
-1.1

> <PUBCHEM_EXACT_MASS>
426.132153

> <PUBCHEM_MOLECULAR_FORMULA>
C16H22N6O6S

> <PUBCHEM_MOLECULAR_WEIGHT>
426.44748

> <PUBCHEM_OPENEYE_CAN_SMILES>
CNS(=O)(=O)C1=CC=C(C=C1)CNCC2C(C(C(O2)N3C=NC(=N3)C(=O)N)O)O

> <PUBCHEM_OPENEYE_ISO_SMILES>
CNS(=O)(=O)C1=CC=C(C=C1)CNC[C@@H]2[C@H]([C@H]([C@@H](O2)N3C=NC(=N3)C(=O)N)O)O

> <PUBCHEM_CACTVS_TPSA>
190

> <PUBCHEM_MONOISOTOPIC_WEIGHT>
426.132153

> <PUBCHEM_TOTAL_CHARGE>
0

> <PUBCHEM_HEAVY_ATOM_COUNT>
29

> <PUBCHEM_ATOM_DEF_STEREO_COUNT>
4

> <PUBCHEM_ATOM_UDEF_STEREO_COUNT>
0

> <PUBCHEM_BOND_DEF_STEREO_COUNT>
0

> <PUBCHEM_BOND_UDEF_STEREO_COUNT>
0

> <PUBCHEM_ISOTOPIC_ATOM_COUNT>
0

> <PUBCHEM_COMPONENT_COUNT>
1

> <PUBCHEM_CACTVS_TAUTO_COUNT>
2

> <PUBCHEM_COORDINATE_TYPE>
1
5
255

> <PUBCHEM_BONDANNOTATIONS>
10  22  8
11  20  8
11  22  8
14  18  5
21  23  8
21  24  8
23  26  8
24  27  8
25  26  8
25  27  8
15  3  6
16  4  6
8  10  8
17  8  5
8  20  8

$$$$
45281144
  -OEChem-03221309382D

 46 49  0     1  0  0  0  0  0999 V2000
    6.2619    1.8283    0.0000 S   0  0  0  0  0  0  0  0  0  0  0  0
    4.6783    1.0236    0.0000 S   0  0  0  0  0  0  0  0  0  0  0  0
    9.3497    0.1533    0.0000 O   0  0  0  0  0  0  0  0  0  0  0  0
    9.0406    2.7224    0.0000 O   0  0  0  0  0  0  0  0  0  0  0  0
   11.1097    2.0501    0.0000 O   0  0  0  0  0  0  0  0  0  0  0  0
    6.2619    0.8283    0.0000 O   0  0  0  0  0  0  0  0  0  0  0  0
    6.2619    2.8283    0.0000 O   0  0  0  0  0  0  0  0  0  0  0  0
   11.7007   -3.1287    0.0000 O   0  0  0  0  0  0  0  0  0  0  0  0
   11.1097   -0.1255    0.0000 N   0  0  0  0  0  0  0  0  0  0  0  0
    7.2619    1.8283    0.0000 N   0  0  0  0  0  0  0  0  0  0  0  0
   11.1097   -1.1255    0.0000 N   0  0  0  0  0  0  0  0  0  0  0  0
   12.6486   -0.6255    0.0000 N   0  0  0  0  0  0  0  0  0  0  0  0
   13.3480   -2.5935    0.0000 N   0  0  0  0  0  0  0  0  0  0  0  0
    8.7619    0.9623    0.0000 C   0  0  1  0  0  0  0  0  0  0  0  0
    9.3497    1.7713    0.0000 C   0  0  2  0  0  0  0  0  0  0  0  0
   10.3007    1.4623    0.0000 C   0  0  2  0  0  0  0  0  0  0  0  0
   10.3007    0.4623    0.0000 C   0  0  1  0  0  0  0  0  0  0  0  0
    7.7619    0.9623    0.0000 C   0  0  0  0  0  0  0  0  0  0  0  0
   12.0608    0.1835    0.0000 C   0  0  0  0  0  0  0  0  0  0  0  0
    5.2619    1.8283    0.0000 C   0  0  0  0  0  0  0  0  0  0  0  0
   12.0608   -1.4345    0.0000 C   0  0  0  0  0  0  0  0  0  0  0  0
    4.6783    2.6331    0.0000 C   0  0  0  0  0  0  0  0  0  0  0  0
    3.7320    2.3283    0.0000 C   0  0  0  0  0  0  0  0  0  0  0  0
    3.7320    1.3283    0.0000 C   0  0  0  0  0  0  0  0  0  0  0  0
   12.3698   -2.3856    0.0000 C   0  0  0  0  0  0  0  0  0  0  0  0
    2.8660    2.8283    0.0000 C   0  0  0  0  0  0  0  0  0  0  0  0
    2.8660    0.8283    0.0000 C   0  0  0  0  0  0  0  0  0  0  0  0
    2.0000    2.3283    0.0000 C   0  0  0  0  0  0  0  0  0  0  0  0
    2.0000    1.3283    0.0000 C   0  0  0  0  0  0  0  0  0  0  0  0
    8.4804    0.4099    0.0000 H   0  0  0  0  0  0  0  0  0  0  0  0
    8.7373    1.8683    0.0000 H   0  0  0  0  0  0  0  0  0  0  0  0
   10.2037    2.0747    0.0000 H   0  0  0  0  0  0  0  0  0  0  0  0
   10.2037   -0.1501    0.0000 H   0  0  0  0  0  0  0  0  0  0  0  0
    7.1793    0.7502    0.0000 H   0  0  0  0  0  0  0  0  0  0  0  0
    7.8695    0.3517    0.0000 H   0  0  0  0  0  0  0  0  0  0  0  0
    7.5719    2.3653    0.0000 H   0  0  0  0  0  0  0  0  0  0  0  0
    9.4555    3.1831    0.0000 H   0  0  0  0  0  0  0  0  0  0  0  0
   11.0449    2.6667    0.0000 H   0  0  0  0  0  0  0  0  0  0  0  0
   12.2524    0.7732    0.0000 H   0  0  0  0  0  0  0  0  0  0  0  0
    4.8709    3.2224    0.0000 H   0  0  0  0  0  0  0  0  0  0  0  0
    2.8660    3.4483    0.0000 H   0  0  0  0  0  0  0  0  0  0  0  0
    2.8660    0.2083    0.0000 H   0  0  0  0  0  0  0  0  0  0  0  0
    1.4631    2.6383    0.0000 H   0  0  0  0  0  0  0  0  0  0  0  0
    1.4631    1.0183    0.0000 H   0  0  0  0  0  0  0  0  0  0  0  0
   13.5395   -3.1831    0.0000 H   0  0  0  0  0  0  0  0  0  0  0  0
   13.7628   -2.1327    0.0000 H   0  0  0  0  0  0  0  0  0  0  0  0
  1  6  2  0  0  0  0
  1  7  2  0  0  0  0
  1 10  1  0  0  0  0
  1 20  1  0  0  0  0
  2 20  1  0  0  0  0
  2 24  1  0  0  0  0
  3 14  1  0  0  0  0
  3 17  1  0  0  0  0
 15  4  1  1  0  0  0
  4 37  1  0  0  0  0
 16  5  1  1  0  0  0
  5 38  1  0  0  0  0
  8 25  2  0  0  0  0
  9 11  1  0  0  0  0
 17  9  1  6  0  0  0
  9 19  1  0  0  0  0
 10 18  1  0  0  0  0
 10 36  1  0  0  0  0
 11 21  2  0  0  0  0
 12 19  2  0  0  0  0
 12 21  1  0  0  0  0
 13 25  1  0  0  0  0
 13 45  1  0  0  0  0
 13 46  1  0  0  0  0
 14 15  1  0  0  0  0
 14 18  1  6  0  0  0
 14 30  1  0  0  0  0
 15 16  1  0  0  0  0
 15 31  1  0  0  0  0
 16 17  1  0  0  0  0
 16 32  1  0  0  0  0
 17 33  1  0  0  0  0
 18 34  1  0  0  0  0
 18 35  1  0  0  0  0
 19 39  1  0  0  0  0
 20 22  2  0  0  0  0
 21 25  1  0  0  0  0
 22 23  1  0  0  0  0
 22 40  1  0  0  0  0
 23 24  1  0  0  0  0
 23 26  2  0  0  0  0
 24 27  2  0  0  0  0
 26 28  1  0  0  0  0
 26 41  1  0  0  0  0
 27 29  1  0  0  0  0
 27 42  1  0  0  0  0
 28 29  2  0  0  0  0
 28 43  1  0  0  0  0
 29 44  1  0  0  0  0
M  END
> <PUBCHEM_COMPOUND_CID>
45281144

> <PUBCHEM_COMPOUND_CANONICALIZED>
1

> <PUBCHEM_CACTVS_COMPLEXITY>
721

> <PUBCHEM_CACTVS_HBOND_ACCEPTOR>
10

> <PUBCHEM_CACTVS_HBOND_DONOR>
4

> <PUBCHEM_CACTVS_ROTATABLE_BOND>
6

> <PUBCHEM_CACTVS_SUBSKEYS>
AAADceB7uABgAAAAAAAAAAAAAAAAAWJEgAAwAAAAAAAAAEgB/AAAHgQYSAAADBTh2wY1EcZIFgquAiNzNHBTgZsyiLBdyJiIAIiLeCKgmTCfYAAvmAI7iAewkIAOAAAAAAAEAAAAAAAAAAgAAAAAAAAAAA==

> <PUBCHEM_IUPAC_OPENEYE_NAME>
1-[(2R,3R,4S,5R)-5-[(benzothiophen-2-ylsulfonylamino)methyl]-3,4-dihydroxy-tetrahydrofuran-2-yl]-1,2,4-triazole-3-carboxamide

> <PUBCHEM_IUPAC_CAS_NAME>
1-[(2R,3R,4S,5R)-5-[(1-benzothiophen-2-ylsulfonylamino)methyl]-3,4-dihydroxy-2-oxolanyl]-1,2,4-triazole-3-carboxamide

> <PUBCHEM_IUPAC_NAME>
1-[(2R,3R,4S,5R)-5-[(1-benzothiophen-2-ylsulfonylamino)methyl]-3,4-dihydroxyoxolan-2-yl]-1,2,4-triazole-3-carboxamide

> <PUBCHEM_IUPAC_SYSTEMATIC_NAME>
1-[(2R,3R,4S,5R)-5-[(1-benzothiophen-2-ylsulfonylamino)methyl]-3,4-bis(oxidanyl)oxolan-2-yl]-1,2,4-triazole-3-carboxamide

> <PUBCHEM_IUPAC_TRADITIONAL_NAME>
1-[(2R,3R,4S,5R)-5-[(benzothiophen-2-ylsulfonylamino)methyl]-3,4-dihydroxy-tetrahydrofuran-2-yl]-1,2,4-triazole-3-carboxamide

> <PUBCHEM_IUPAC_INCHI>
InChI=1S/C16H17N5O6S2/c17-14(24)15-18-7-21(20-15)16-13(23)12(22)9(27-16)6-19-29(25,26)11-5-8-3-1-2-4-10(8)28-11/h1-5,7,9,12-13,16,19,22-23H,6H2,(H2,17,24)/t9-,12-,13-,16-/m1/s1

> <PUBCHEM_IUPAC_INCHIKEY>
OVIXUJBYRFGVPT-RVXWVPLUSA-N

> <PUBCHEM_XLOGP3>
0.8

> <PUBCHEM_EXACT_MASS>
439.062025

> <PUBCHEM_MOLECULAR_FORMULA>
C16H17N5O6S2

> <PUBCHEM_MOLECULAR_WEIGHT>
439.46608

> <PUBCHEM_OPENEYE_CAN_SMILES>
C1=CC=C2C(=C1)C=C(S2)S(=O)(=O)NCC3C(C(C(O3)N4C=NC(=N4)C(=O)N)O)O

> <PUBCHEM_OPENEYE_ISO_SMILES>
C1=CC=C2C(=C1)C=C(S2)S(=O)(=O)NC[C@@H]3[C@H]([C@H]([C@@H](O3)N4C=NC(=N4)C(=O)N)O)O

> <PUBCHEM_CACTVS_TPSA>
206

> <PUBCHEM_MONOISOTOPIC_WEIGHT>
439.062025

> <PUBCHEM_TOTAL_CHARGE>
0

> <PUBCHEM_HEAVY_ATOM_COUNT>
29

> <PUBCHEM_ATOM_DEF_STEREO_COUNT>
4

> <PUBCHEM_ATOM_UDEF_STEREO_COUNT>
0

> <PUBCHEM_BOND_DEF_STEREO_COUNT>
0

> <PUBCHEM_BOND_UDEF_STEREO_COUNT>
0

> <PUBCHEM_ISOTOPIC_ATOM_COUNT>
0

> <PUBCHEM_COMPONENT_COUNT>
1

> <PUBCHEM_CACTVS_TAUTO_COUNT>
2

> <PUBCHEM_COORDINATE_TYPE>
1
5
255

> <PUBCHEM_BONDANNOTATIONS>
11  21  8
12  19  8
12  21  8
14  18  6
2  20  8
2  24  8
20  22  8
22  23  8
23  24  8
23  26  8
24  27  8
26  28  8
27  29  8
28  29  8
15  4  5
16  5  5
9  11  8
17  9  6
9  19  8

$$$$
