26384977
  -OEChem-02061306412D

 27 28  0     0  0  0  0  0  0999 V2000
    3.7320    1.0170    0.0000 N   0  3  0  0  0  0  0  0  0  0  0  0
    3.7320   -1.9830    0.0000 N   0  0  0  0  0  0  0  0  0  0  0  0
    4.5981    1.5170    0.0000 C   0  0  0  0  0  0  0  0  0  0  0  0
    5.5640    1.2582    0.0000 C   0  0  0  0  0  0  0  0  0  0  0  0
    4.8569    2.4830    0.0000 C   0  0  0  0  0  0  0  0  0  0  0  0
    5.8228    2.2241    0.0000 C   0  0  0  0  0  0  0  0  0  0  0  0
    2.8660    0.5170    0.0000 C   0  0  0  0  0  0  0  0  0  0  0  0
    2.8660   -0.4830    0.0000 C   0  0  0  0  0  0  0  0  0  0  0  0
    2.0000   -0.9830    0.0000 C   0  0  0  0  0  0  0  0  0  0  0  0
    3.7320   -0.9830    0.0000 C   0  0  0  0  0  0  0  0  0  0  0  0
    2.0000   -1.9830    0.0000 C   0  0  0  0  0  0  0  0  0  0  0  0
    2.8660   -2.4830    0.0000 C   0  0  0  0  0  0  0  0  0  0  0  0
    4.6790    0.9023    0.0000 H   0  0  0  0  0  0  0  0  0  0  0  0
    5.4035    0.6593    0.0000 H   0  0  0  0  0  0  0  0  0  0  0  0
    6.1629    1.0978    0.0000 H   0  0  0  0  0  0  0  0  0  0  0  0
    5.0174    3.0818    0.0000 H   0  0  0  0  0  0  0  0  0  0  0  0
    4.2580    2.6434    0.0000 H   0  0  0  0  0  0  0  0  0  0  0  0
    6.4217    2.0637    0.0000 H   0  0  0  0  0  0  0  0  0  0  0  0
    5.9833    2.8230    0.0000 H   0  0  0  0  0  0  0  0  0  0  0  0
    3.4220    1.5540    0.0000 H   0  0  0  0  0  0  0  0  0  0  0  0
    4.0420    0.4801    0.0000 H   0  0  0  0  0  0  0  0  0  0  0  0
    2.6540    1.0996    0.0000 H   0  0  0  0  0  0  0  0  0  0  0  0
    2.2554    0.4094    0.0000 H   0  0  0  0  0  0  0  0  0  0  0  0
    1.4631   -0.6730    0.0000 H   0  0  0  0  0  0  0  0  0  0  0  0
    4.2690   -0.6730    0.0000 H   0  0  0  0  0  0  0  0  0  0  0  0
    1.4631   -2.2930    0.0000 H   0  0  0  0  0  0  0  0  0  0  0  0
    2.8660   -3.1030    0.0000 H   0  0  0  0  0  0  0  0  0  0  0  0
  1  3  1  0  0  0  0
  1  7  1  0  0  0  0
  1 20  1  0  0  0  0
  1 21  1  0  0  0  0
  2 10  1  0  0  0  0
  2 12  2  0  0  0  0
  3  4  1  0  0  0  0
  3  5  1  0  0  0  0
  3 13  1  0  0  0  0
  4  6  1  0  0  0  0
  4 14  1  0  0  0  0
  4 15  1  0  0  0  0
  5  6  1  0  0  0  0
  5 16  1  0  0  0  0
  5 17  1  0  0  0  0
  6 18  1  0  0  0  0
  6 19  1  0  0  0  0
  7  8  1  0  0  0  0
  7 22  1  0  0  0  0
  7 23  1  0  0  0  0
  8  9  1  0  0  0  0
  8 10  2  0  0  0  0
  9 11  2  0  0  0  0
  9 24  1  0  0  0  0
 10 25  1  0  0  0  0
 11 12  1  0  0  0  0
 11 26  1  0  0  0  0
 12 27  1  0  0  0  0
M  CHG  1   1   1
M  END
> <PUBCHEM_COMPOUND_CID>
26384977

> <PUBCHEM_COMPOUND_CANONICALIZED>
1

> <PUBCHEM_CACTVS_COMPLEXITY>
132

> <PUBCHEM_CACTVS_HBOND_ACCEPTOR>
1

> <PUBCHEM_CACTVS_HBOND_DONOR>
1

> <PUBCHEM_CACTVS_ROTATABLE_BOND>
3

> <PUBCHEM_CACTVS_SUBSKEYS>
AAADccBzAAAAAAAAAAAAAAAAAABgAAAAAAAsAAAAAAAAAAABgAAAHAAQAAAADCjBGgQ8gJLIEACgAjBnRACCgCAxAiAI2KA4ZJgIIOLA0ZGEIAhgkADIyAYQAAAMAAAAAAAAAAAAAAAAAAAAAAAAAAAAAA==

> <PUBCHEM_IUPAC_OPENEYE_NAME>
cyclobutyl(3-pyridylmethyl)ammonium

> <PUBCHEM_IUPAC_CAS_NAME>
cyclobutyl(3-pyridinylmethyl)ammonium

> <PUBCHEM_IUPAC_NAME>
cyclobutyl(pyridin-3-ylmethyl)azanium

> <PUBCHEM_IUPAC_SYSTEMATIC_NAME>
cyclobutyl(pyridin-3-ylmethyl)azanium

> <PUBCHEM_IUPAC_TRADITIONAL_NAME>
cyclobutyl(3-pyridylmethyl)ammonium

> <PUBCHEM_IUPAC_INCHI>
InChI=1S/C10H14N2/c1-4-10(5-1)12-8-9-3-2-6-11-7-9/h2-3,6-7,10,12H,1,4-5,8H2/p+1

> <PUBCHEM_IUPAC_INCHIKEY>
UFFMGQWREGJEFM-UHFFFAOYSA-O

> <PUBCHEM_XLOGP3>
1.3

> <PUBCHEM_EXACT_MASS>
163.123523

> <PUBCHEM_MOLECULAR_FORMULA>
C10H15N2+

> <PUBCHEM_MOLECULAR_WEIGHT>
163.2395

> <PUBCHEM_OPENEYE_CAN_SMILES>
C1CC(C1)[NH2+]CC2=CN=CC=C2

> <PUBCHEM_OPENEYE_ISO_SMILES>
C1CC(C1)[NH2+]CC2=CN=CC=C2

> <PUBCHEM_CACTVS_TPSA>
29.5

> <PUBCHEM_MONOISOTOPIC_WEIGHT>
163.123523

> <PUBCHEM_TOTAL_CHARGE>
1

> <PUBCHEM_HEAVY_ATOM_COUNT>
12

> <PUBCHEM_ATOM_DEF_STEREO_COUNT>
0

> <PUBCHEM_ATOM_UDEF_STEREO_COUNT>
0

> <PUBCHEM_BOND_DEF_STEREO_COUNT>
0

> <PUBCHEM_BOND_UDEF_STEREO_COUNT>
0

> <PUBCHEM_ISOTOPIC_ATOM_COUNT>
0

> <PUBCHEM_COMPONENT_COUNT>
1

> <PUBCHEM_CACTVS_TAUTO_COUNT>
1

> <PUBCHEM_COORDINATE_TYPE>
1
5
255

> <PUBCHEM_BONDANNOTATIONS>
11  12  8
2  10  8
2  12  8
8  10  8
8  9  8
9  11  8

$$$$
