62877077
  -OEChem-11301218212D

 38 41  0     0  0  0  0  0  0999 V2000
    4.3211    0.9707    0.0000 O   0  0  0  0  0  0  0  0  0  0  0  0
    4.6783   -2.3336    0.0000 N   0  0  0  0  0  0  0  0  0  0  0  0
    5.9674    0.4326    0.0000 C   0  0  0  0  0  0  0  0  0  0  0  0
    6.1737   -0.5459    0.0000 C   0  0  0  0  0  0  0  0  0  0  0  0
    6.9180    0.1219    0.0000 C   0  0  0  0  0  0  0  0  0  0  0  0
    6.2781    1.3831    0.0000 C   0  0  0  0  0  0  0  0  0  0  0  0
    4.9889    0.2264    0.0000 C   0  0  0  0  0  0  0  0  0  0  0  0
    4.6783   -0.7242    0.0000 C   0  0  0  0  0  0  0  0  0  0  0  0
    7.2566    1.5893    0.0000 C   0  0  0  0  0  0  0  0  0  0  0  0
    5.6103    2.1274    0.0000 C   0  0  0  0  0  0  0  0  0  0  0  0
    3.7320   -1.0289    0.0000 C   0  0  0  0  0  0  0  0  0  0  0  0
    5.2619   -1.5289    0.0000 C   0  0  0  0  0  0  0  0  0  0  0  0
    3.7320   -2.0289    0.0000 C   0  0  0  0  0  0  0  0  0  0  0  0
    7.5673    2.5398    0.0000 C   0  0  0  0  0  0  0  0  0  0  0  0
    5.9209    3.0779    0.0000 C   0  0  0  0  0  0  0  0  0  0  0  0
    2.8660   -0.5289    0.0000 C   0  0  0  0  0  0  0  0  0  0  0  0
    6.8994    3.2841    0.0000 C   0  0  0  0  0  0  0  0  0  0  0  0
    2.8660   -2.5289    0.0000 C   0  0  0  0  0  0  0  0  0  0  0  0
    4.9889   -3.2841    0.0000 C   0  0  0  0  0  0  0  0  0  0  0  0
    2.0000   -1.0289    0.0000 C   0  0  0  0  0  0  0  0  0  0  0  0
    2.0000   -2.0289    0.0000 C   0  0  0  0  0  0  0  0  0  0  0  0
    7.4059   -0.2606    0.0000 H   0  0  0  0  0  0  0  0  0  0  0  0
    7.2100    0.6688    0.0000 H   0  0  0  0  0  0  0  0  0  0  0  0
    5.5984   -0.7772    0.0000 H   0  0  0  0  0  0  0  0  0  0  0  0
    6.5013   -1.0723    0.0000 H   0  0  0  0  0  0  0  0  0  0  0  0
    7.6707    1.1278    0.0000 H   0  0  0  0  0  0  0  0  0  0  0  0
    5.0036    1.9996    0.0000 H   0  0  0  0  0  0  0  0  0  0  0  0
    5.8819   -1.5289    0.0000 H   0  0  0  0  0  0  0  0  0  0  0  0
    8.1739    2.6677    0.0000 H   0  0  0  0  0  0  0  0  0  0  0  0
    5.5069    3.5394    0.0000 H   0  0  0  0  0  0  0  0  0  0  0  0
    2.8660    0.0911    0.0000 H   0  0  0  0  0  0  0  0  0  0  0  0
    7.0920    3.8735    0.0000 H   0  0  0  0  0  0  0  0  0  0  0  0
    2.8660   -3.1489    0.0000 H   0  0  0  0  0  0  0  0  0  0  0  0
    4.3996   -3.4768    0.0000 H   0  0  0  0  0  0  0  0  0  0  0  0
    5.1815   -3.8735    0.0000 H   0  0  0  0  0  0  0  0  0  0  0  0
    5.5783   -3.0915    0.0000 H   0  0  0  0  0  0  0  0  0  0  0  0
    1.4631   -0.7189    0.0000 H   0  0  0  0  0  0  0  0  0  0  0  0
    1.4631   -2.3389    0.0000 H   0  0  0  0  0  0  0  0  0  0  0  0
  1  7  2  0  0  0  0
  2 12  1  0  0  0  0
  2 13  1  0  0  0  0
  2 19  1  0  0  0  0
  3  4  1  0  0  0  0
  3  5  1  0  0  0  0
  3  6  1  0  0  0  0
  3  7  1  0  0  0  0
  4  5  1  0  0  0  0
  4 24  1  0  0  0  0
  4 25  1  0  0  0  0
  5 22  1  0  0  0  0
  5 23  1  0  0  0  0
  6  9  2  0  0  0  0
  6 10  1  0  0  0  0
  7  8  1  0  0  0  0
  8 11  1  0  0  0  0
  8 12  2  0  0  0  0
  9 14  1  0  0  0  0
  9 26  1  0  0  0  0
 10 15  2  0  0  0  0
 10 27  1  0  0  0  0
 11 13  1  0  0  0  0
 11 16  2  0  0  0  0
 12 28  1  0  0  0  0
 13 18  2  0  0  0  0
 14 17  2  0  0  0  0
 14 29  1  0  0  0  0
 15 17  1  0  0  0  0
 15 30  1  0  0  0  0
 16 20  1  0  0  0  0
 16 31  1  0  0  0  0
 17 32  1  0  0  0  0
 18 21  1  0  0  0  0
 18 33  1  0  0  0  0
 19 34  1  0  0  0  0
 19 35  1  0  0  0  0
 19 36  1  0  0  0  0
 20 21  2  0  0  0  0
 20 37  1  0  0  0  0
 21 38  1  0  0  0  0
M  END
> <PUBCHEM_COMPOUND_CID>
62877077

> <PUBCHEM_COMPOUND_CANONICALIZED>
1

> <PUBCHEM_CACTVS_COMPLEXITY>
408

> <PUBCHEM_CACTVS_HBOND_ACCEPTOR>
1

> <PUBCHEM_CACTVS_HBOND_DONOR>
0

> <PUBCHEM_CACTVS_ROTATABLE_BOND>
3

> <PUBCHEM_CACTVS_SUBSKEYS>
AAADceB6IAAAAAAAAAAAAAAAGAAAAWAAAAAwYAAAAAAAAFgB9AAAHgAAAAAADgzBngQ+wPMMEACoA7R3RACCgCA1AiAI2CE4ZNgIIPrAlZGEIYhggADIyccciMCPgAAAAAACAAAAAAAAAAQAAAAAAAAAAA==

> <PUBCHEM_IUPAC_OPENEYE_NAME>
(1-methylindol-3-yl)-(1-phenylcyclopropyl)methanone

> <PUBCHEM_IUPAC_CAS_NAME>
(1-methyl-3-indolyl)-(1-phenylcyclopropyl)methanone

> <PUBCHEM_IUPAC_NAME>
(1-methylindol-3-yl)-(1-phenylcyclopropyl)methanone

> <PUBCHEM_IUPAC_SYSTEMATIC_NAME>
(1-methylindol-3-yl)-(1-phenylcyclopropyl)methanone

> <PUBCHEM_IUPAC_TRADITIONAL_NAME>
(1-methylindol-3-yl)-(1-phenylcyclopropyl)methanone

> <PUBCHEM_IUPAC_INCHI>
InChI=1S/C19H17NO/c1-20-13-16(15-9-5-6-10-17(15)20)18(21)19(11-12-19)14-7-3-2-4-8-14/h2-10,13H,11-12H2,1H3

> <PUBCHEM_IUPAC_INCHIKEY>
OLRMYASXKXUGEN-UHFFFAOYSA-N

> <PUBCHEM_XLOGP3>
3.9

> <PUBCHEM_EXACT_MASS>
275.131014

> <PUBCHEM_MOLECULAR_FORMULA>
C19H17NO

> <PUBCHEM_MOLECULAR_WEIGHT>
275.34438

> <PUBCHEM_OPENEYE_CAN_SMILES>
CN1C=C(C2=CC=CC=C21)C(=O)C3(CC3)C4=CC=CC=C4

> <PUBCHEM_OPENEYE_ISO_SMILES>
CN1C=C(C2=CC=CC=C21)C(=O)C3(CC3)C4=CC=CC=C4

> <PUBCHEM_CACTVS_TPSA>
22

> <PUBCHEM_MONOISOTOPIC_WEIGHT>
275.131014

> <PUBCHEM_TOTAL_CHARGE>
0

> <PUBCHEM_HEAVY_ATOM_COUNT>
21

> <PUBCHEM_ATOM_DEF_STEREO_COUNT>
0

> <PUBCHEM_ATOM_UDEF_STEREO_COUNT>
0

> <PUBCHEM_BOND_DEF_STEREO_COUNT>
0

> <PUBCHEM_BOND_UDEF_STEREO_COUNT>
0

> <PUBCHEM_ISOTOPIC_ATOM_COUNT>
0

> <PUBCHEM_COMPONENT_COUNT>
1

> <PUBCHEM_CACTVS_TAUTO_COUNT>
1

> <PUBCHEM_COORDINATE_TYPE>
1
5
255

> <PUBCHEM_BONDANNOTATIONS>
10  15  8
11  13  8
11  16  8
13  18  8
14  17  8
15  17  8
16  20  8
18  21  8
2  12  8
2  13  8
20  21  8
6  10  8
6  9  8
8  11  8
8  12  8
9  14  8

$$$$
62879154
  -OEChem-11301218222D

 35 38  0     0  0  0  0  0  0999 V2000
    4.3211    0.7901    0.0000 O   0  0  0  0  0  0  0  0  0  0  0  0
    4.6783   -2.5142    0.0000 N   0  0  0  0  0  0  0  0  0  0  0  0
    5.9674    0.2520    0.0000 C   0  0  0  0  0  0  0  0  0  0  0  0
    6.1737   -0.7265    0.0000 C   0  0  0  0  0  0  0  0  0  0  0  0
    6.9180   -0.0587    0.0000 C   0  0  0  0  0  0  0  0  0  0  0  0
    6.2781    1.2025    0.0000 C   0  0  0  0  0  0  0  0  0  0  0  0
    4.9889    0.0458    0.0000 C   0  0  0  0  0  0  0  0  0  0  0  0
    4.6783   -0.9048    0.0000 C   0  0  0  0  0  0  0  0  0  0  0  0
    7.2566    1.4087    0.0000 C   0  0  0  0  0  0  0  0  0  0  0  0
    5.6103    1.9468    0.0000 C   0  0  0  0  0  0  0  0  0  0  0  0
    3.7320   -1.2095    0.0000 C   0  0  0  0  0  0  0  0  0  0  0  0
    5.2619   -1.7095    0.0000 C   0  0  0  0  0  0  0  0  0  0  0  0
    3.7320   -2.2095    0.0000 C   0  0  0  0  0  0  0  0  0  0  0  0
    7.5673    2.3592    0.0000 C   0  0  0  0  0  0  0  0  0  0  0  0
    5.9209    2.8973    0.0000 C   0  0  0  0  0  0  0  0  0  0  0  0
    6.8994    3.1035    0.0000 C   0  0  0  0  0  0  0  0  0  0  0  0
    2.8660   -0.7095    0.0000 C   0  0  0  0  0  0  0  0  0  0  0  0
    2.8660   -2.7095    0.0000 C   0  0  0  0  0  0  0  0  0  0  0  0
    2.0000   -1.2095    0.0000 C   0  0  0  0  0  0  0  0  0  0  0  0
    2.0000   -2.2095    0.0000 C   0  0  0  0  0  0  0  0  0  0  0  0
    5.5984   -0.9578    0.0000 H   0  0  0  0  0  0  0  0  0  0  0  0
    6.5013   -1.2529    0.0000 H   0  0  0  0  0  0  0  0  0  0  0  0
    7.4059   -0.4412    0.0000 H   0  0  0  0  0  0  0  0  0  0  0  0
    7.2100    0.4882    0.0000 H   0  0  0  0  0  0  0  0  0  0  0  0
    7.6707    0.9473    0.0000 H   0  0  0  0  0  0  0  0  0  0  0  0
    5.0036    1.8190    0.0000 H   0  0  0  0  0  0  0  0  0  0  0  0
    5.8819   -1.7095    0.0000 H   0  0  0  0  0  0  0  0  0  0  0  0
    8.1739    2.4871    0.0000 H   0  0  0  0  0  0  0  0  0  0  0  0
    5.5069    3.3588    0.0000 H   0  0  0  0  0  0  0  0  0  0  0  0
    4.8709   -3.1035    0.0000 H   0  0  0  0  0  0  0  0  0  0  0  0
    7.0920    3.6929    0.0000 H   0  0  0  0  0  0  0  0  0  0  0  0
    2.8660   -0.0895    0.0000 H   0  0  0  0  0  0  0  0  0  0  0  0
    2.8660   -3.3295    0.0000 H   0  0  0  0  0  0  0  0  0  0  0  0
    1.4631   -0.8995    0.0000 H   0  0  0  0  0  0  0  0  0  0  0  0
    1.4631   -2.5195    0.0000 H   0  0  0  0  0  0  0  0  0  0  0  0
  1  7  2  0  0  0  0
  2 12  1  0  0  0  0
  2 13  1  0  0  0  0
  2 30  1  0  0  0  0
  3  4  1  0  0  0  0
  3  5  1  0  0  0  0
  3  6  1  0  0  0  0
  3  7  1  0  0  0  0
  4  5  1  0  0  0  0
  4 21  1  0  0  0  0
  4 22  1  0  0  0  0
  5 23  1  0  0  0  0
  5 24  1  0  0  0  0
  6  9  2  0  0  0  0
  6 10  1  0  0  0  0
  7  8  1  0  0  0  0
  8 11  1  0  0  0  0
  8 12  2  0  0  0  0
  9 14  1  0  0  0  0
  9 25  1  0  0  0  0
 10 15  2  0  0  0  0
 10 26  1  0  0  0  0
 11 13  1  0  0  0  0
 11 17  2  0  0  0  0
 12 27  1  0  0  0  0
 13 18  2  0  0  0  0
 14 16  2  0  0  0  0
 14 28  1  0  0  0  0
 15 16  1  0  0  0  0
 15 29  1  0  0  0  0
 16 31  1  0  0  0  0
 17 19  1  0  0  0  0
 17 32  1  0  0  0  0
 18 20  1  0  0  0  0
 18 33  1  0  0  0  0
 19 20  2  0  0  0  0
 19 34  1  0  0  0  0
 20 35  1  0  0  0  0
M  END
> <PUBCHEM_COMPOUND_CID>
62879154

> <PUBCHEM_COMPOUND_CANONICALIZED>
1

> <PUBCHEM_CACTVS_COMPLEXITY>
381

> <PUBCHEM_CACTVS_HBOND_ACCEPTOR>
1

> <PUBCHEM_CACTVS_HBOND_DONOR>
1

> <PUBCHEM_CACTVS_ROTATABLE_BOND>
3

> <PUBCHEM_CACTVS_SUBSKEYS>
AAADccB6IAAAAAAAAAAAAAAAGAAAAWAAAAAwYAAAAAAAAFgB9AAAHgAQAAAADgzBngQ8wPLJkACoA7R3RACCgCA1AiAI2aE4ZNgIIPrAlZGEIYhgkADIyccciMCPgAAAAAACAAAAAAAAAAQAAAAAAAAAAA==

> <PUBCHEM_IUPAC_OPENEYE_NAME>
1H-indol-3-yl-(1-phenylcyclopropyl)methanone

> <PUBCHEM_IUPAC_CAS_NAME>
1H-indol-3-yl-(1-phenylcyclopropyl)methanone

> <PUBCHEM_IUPAC_NAME>
1H-indol-3-yl-(1-phenylcyclopropyl)methanone

> <PUBCHEM_IUPAC_SYSTEMATIC_NAME>
1H-indol-3-yl-(1-phenylcyclopropyl)methanone

> <PUBCHEM_IUPAC_TRADITIONAL_NAME>
1H-indol-3-yl-(1-phenylcyclopropyl)methanone

> <PUBCHEM_IUPAC_INCHI>
InChI=1S/C18H15NO/c20-17(15-12-19-16-9-5-4-8-14(15)16)18(10-11-18)13-6-2-1-3-7-13/h1-9,12,19H,10-11H2

> <PUBCHEM_IUPAC_INCHIKEY>
GUERHEKRQQUZGX-UHFFFAOYSA-N

> <PUBCHEM_XLOGP3>
4

> <PUBCHEM_EXACT_MASS>
261.115364

> <PUBCHEM_MOLECULAR_FORMULA>
C18H15NO

> <PUBCHEM_MOLECULAR_WEIGHT>
261.3178

> <PUBCHEM_OPENEYE_CAN_SMILES>
C1CC1(C2=CC=CC=C2)C(=O)C3=CNC4=CC=CC=C43

> <PUBCHEM_OPENEYE_ISO_SMILES>
C1CC1(C2=CC=CC=C2)C(=O)C3=CNC4=CC=CC=C43

> <PUBCHEM_CACTVS_TPSA>
32.9

> <PUBCHEM_MONOISOTOPIC_WEIGHT>
261.115364

> <PUBCHEM_TOTAL_CHARGE>
0

> <PUBCHEM_HEAVY_ATOM_COUNT>
20

> <PUBCHEM_ATOM_DEF_STEREO_COUNT>
0

> <PUBCHEM_ATOM_UDEF_STEREO_COUNT>
0

> <PUBCHEM_BOND_DEF_STEREO_COUNT>
0

> <PUBCHEM_BOND_UDEF_STEREO_COUNT>
0

> <PUBCHEM_ISOTOPIC_ATOM_COUNT>
0

> <PUBCHEM_COMPONENT_COUNT>
1

> <PUBCHEM_CACTVS_TAUTO_COUNT>
3

> <PUBCHEM_COORDINATE_TYPE>
1
5
255

> <PUBCHEM_BONDANNOTATIONS>
10  15  8
11  13  8
11  17  8
13  18  8
14  16  8
15  16  8
17  19  8
18  20  8
19  20  8
2  12  8
2  13  8
6  10  8
6  9  8
8  11  8
8  12  8
9  14  8

$$$$
62880721
  -OEChem-11301218222D

 32 35  0     0  0  0  0  0  0999 V2000
    4.6783    0.0057    0.0000 N   0  0  0  0  0  0  0  0  0  0  0  0
    4.6783   -1.6038    0.0000 N   0  0  0  0  0  0  0  0  0  0  0  0
    6.2619   -0.7990    0.0000 C   0  0  0  0  0  0  0  0  0  0  0  0
    7.1279   -1.2990    0.0000 C   0  0  0  0  0  0  0  0  0  0  0  0
    6.2619   -1.7990    0.0000 C   0  0  0  0  0  0  0  0  0  0  0  0
    5.2619   -0.7990    0.0000 C   0  0  0  0  0  0  0  0  0  0  0  0
    6.7619    0.0670    0.0000 C   0  0  0  0  0  0  0  0  0  0  0  0
    7.7619    0.0670    0.0000 C   0  0  0  0  0  0  0  0  0  0  0  0
    6.2619    0.9330    0.0000 C   0  0  0  0  0  0  0  0  0  0  0  0
    3.7320   -0.2990    0.0000 C   0  0  0  0  0  0  0  0  0  0  0  0
    3.7320   -1.2990    0.0000 C   0  0  0  0  0  0  0  0  0  0  0  0
    8.2619    0.9330    0.0000 C   0  0  0  0  0  0  0  0  0  0  0  0
    6.7619    1.7990    0.0000 C   0  0  0  0  0  0  0  0  0  0  0  0
    2.8660    0.2010    0.0000 C   0  0  0  0  0  0  0  0  0  0  0  0
    7.7619    1.7990    0.0000 C   0  0  0  0  0  0  0  0  0  0  0  0
    2.8660   -1.7990    0.0000 C   0  0  0  0  0  0  0  0  0  0  0  0
    2.0000   -0.2990    0.0000 C   0  0  0  0  0  0  0  0  0  0  0  0
    2.0000   -1.2990    0.0000 C   0  0  0  0  0  0  0  0  0  0  0  0
    7.5264   -1.7740    0.0000 H   0  0  0  0  0  0  0  0  0  0  0  0
    7.5264   -0.8241    0.0000 H   0  0  0  0  0  0  0  0  0  0  0  0
    5.6513   -1.9067    0.0000 H   0  0  0  0  0  0  0  0  0  0  0  0
    6.4739   -2.3816    0.0000 H   0  0  0  0  0  0  0  0  0  0  0  0
    4.8709    0.5950    0.0000 H   0  0  0  0  0  0  0  0  0  0  0  0
    8.0719   -0.4699    0.0000 H   0  0  0  0  0  0  0  0  0  0  0  0
    5.6419    0.9330    0.0000 H   0  0  0  0  0  0  0  0  0  0  0  0
    8.8819    0.9330    0.0000 H   0  0  0  0  0  0  0  0  0  0  0  0
    6.4519    2.3360    0.0000 H   0  0  0  0  0  0  0  0  0  0  0  0
    2.8660    0.8210    0.0000 H   0  0  0  0  0  0  0  0  0  0  0  0
    8.0719    2.3360    0.0000 H   0  0  0  0  0  0  0  0  0  0  0  0
    2.8660   -2.4190    0.0000 H   0  0  0  0  0  0  0  0  0  0  0  0
    1.4631    0.0110    0.0000 H   0  0  0  0  0  0  0  0  0  0  0  0
    1.4631   -1.6090    0.0000 H   0  0  0  0  0  0  0  0  0  0  0  0
  1  6  1  0  0  0  0
  1 10  1  0  0  0  0
  1 23  1  0  0  0  0
  2  6  2  0  0  0  0
  2 11  1  0  0  0  0
  3  4  1  0  0  0  0
  3  5  1  0  0  0  0
  3  6  1  0  0  0  0
  3  7  1  0  0  0  0
  4  5  1  0  0  0  0
  4 19  1  0  0  0  0
  4 20  1  0  0  0  0
  5 21  1  0  0  0  0
  5 22  1  0  0  0  0
  7  8  2  0  0  0  0
  7  9  1  0  0  0  0
  8 12  1  0  0  0  0
  8 24  1  0  0  0  0
  9 13  2  0  0  0  0
  9 25  1  0  0  0  0
 10 11  1  0  0  0  0
 10 14  2  0  0  0  0
 11 16  2  0  0  0  0
 12 15  2  0  0  0  0
 12 26  1  0  0  0  0
 13 15  1  0  0  0  0
 13 27  1  0  0  0  0
 14 17  1  0  0  0  0
 14 28  1  0  0  0  0
 15 29  1  0  0  0  0
 16 18  1  0  0  0  0
 16 30  1  0  0  0  0
 17 18  2  0  0  0  0
 17 31  1  0  0  0  0
 18 32  1  0  0  0  0
M  END
> <PUBCHEM_COMPOUND_CID>
62880721

> <PUBCHEM_COMPOUND_CANONICALIZED>
1

> <PUBCHEM_CACTVS_COMPLEXITY>
304

> <PUBCHEM_CACTVS_HBOND_ACCEPTOR>
1

> <PUBCHEM_CACTVS_HBOND_DONOR>
1

> <PUBCHEM_CACTVS_ROTATABLE_BOND>
2

> <PUBCHEM_CACTVS_SUBSKEYS>
AAADccB7AAAAAAAAAAAAAAAAGAAAAWAAAAAwYAAAAAAAAFgB9AAAHAAQAAAADgiBHwAx0LbJkACgAyZiZACCgC2hEqAJmSAwdJiIaKLAmZGUIAhokALIyCcQgMAPgAAAAAAAACAAAAAAAAAAQAAAAAAAAA==

> <PUBCHEM_IUPAC_OPENEYE_NAME>
2-(1-phenylcyclopropyl)-1H-benzimidazole

> <PUBCHEM_IUPAC_CAS_NAME>
2-(1-phenylcyclopropyl)-1H-benzimidazole

> <PUBCHEM_IUPAC_NAME>
2-(1-phenylcyclopropyl)-1H-benzimidazole

> <PUBCHEM_IUPAC_SYSTEMATIC_NAME>
2-(1-phenylcyclopropyl)-1H-benzimidazole

> <PUBCHEM_IUPAC_TRADITIONAL_NAME>
2-(1-phenylcyclopropyl)-1H-benzimidazole

> <PUBCHEM_IUPAC_INCHI>
InChI=1S/C16H14N2/c1-2-6-12(7-3-1)16(10-11-16)15-17-13-8-4-5-9-14(13)18-15/h1-9H,10-11H2,(H,17,18)

> <PUBCHEM_IUPAC_INCHIKEY>
NVHUGDLGCWUHNN-UHFFFAOYSA-N

> <PUBCHEM_XLOGP3>
3.8

> <PUBCHEM_EXACT_MASS>
234.115698

> <PUBCHEM_MOLECULAR_FORMULA>
C16H14N2

> <PUBCHEM_MOLECULAR_WEIGHT>
234.29576

> <PUBCHEM_OPENEYE_CAN_SMILES>
C1CC1(C2=CC=CC=C2)C3=NC4=CC=CC=C4N3

> <PUBCHEM_OPENEYE_ISO_SMILES>
C1CC1(C2=CC=CC=C2)C3=NC4=CC=CC=C4N3

> <PUBCHEM_CACTVS_TPSA>
28.7

> <PUBCHEM_MONOISOTOPIC_WEIGHT>
234.115698

> <PUBCHEM_TOTAL_CHARGE>
0

> <PUBCHEM_HEAVY_ATOM_COUNT>
18

> <PUBCHEM_ATOM_DEF_STEREO_COUNT>
0

> <PUBCHEM_ATOM_UDEF_STEREO_COUNT>
0

> <PUBCHEM_BOND_DEF_STEREO_COUNT>
0

> <PUBCHEM_BOND_UDEF_STEREO_COUNT>
0

> <PUBCHEM_ISOTOPIC_ATOM_COUNT>
0

> <PUBCHEM_COMPONENT_COUNT>
1

> <PUBCHEM_CACTVS_TAUTO_COUNT>
1

> <PUBCHEM_COORDINATE_TYPE>
1
5
255

> <PUBCHEM_BONDANNOTATIONS>
1  10  8
1  6  8
10  11  8
10  14  8
11  16  8
12  15  8
13  15  8
14  17  8
16  18  8
17  18  8
2  11  8
2  6  8
7  8  8
7  9  8
8  12  8
9  13  8

$$$$
