47334837
  -OEChem-05231305272D

 29 30  0     0  0  0  0  0  0999 V2000
    6.7619    0.3177    0.0000 O   0  0  0  0  0  0  0  0  0  0  0  0
    4.6783    0.2564    0.0000 N   0  0  0  0  0  0  0  0  0  0  0  0
    6.7619   -1.4143    0.0000 N   0  0  0  0  0  0  0  0  0  0  0  0
    3.7320   -0.0483    0.0000 C   0  0  0  0  0  0  0  0  0  0  0  0
    5.2619   -0.5483    0.0000 C   0  0  0  0  0  0  0  0  0  0  0  0
    3.7320   -1.0483    0.0000 C   0  0  0  0  0  0  0  0  0  0  0  0
    4.9889    1.2070    0.0000 C   0  0  0  0  0  0  0  0  0  0  0  0
    4.6783   -1.3530    0.0000 C   0  0  0  0  0  0  0  0  0  0  0  0
    2.8660    0.4517    0.0000 C   0  0  0  0  0  0  0  0  0  0  0  0
    2.8660   -1.5483    0.0000 C   0  0  0  0  0  0  0  0  0  0  0  0
    6.2619   -0.5483    0.0000 C   0  0  0  0  0  0  0  0  0  0  0  0
    4.3211    1.9513    0.0000 C   0  0  0  0  0  0  0  0  0  0  0  0
    2.0000   -0.0483    0.0000 C   0  0  0  0  0  0  0  0  0  0  0  0
    2.0000   -1.0483    0.0000 C   0  0  0  0  0  0  0  0  0  0  0  0
    7.7619   -1.4143    0.0000 C   0  0  0  0  0  0  0  0  0  0  0  0
    5.5359    0.9149    0.0000 H   0  0  0  0  0  0  0  0  0  0  0  0
    5.3715    1.6949    0.0000 H   0  0  0  0  0  0  0  0  0  0  0  0
    4.8709   -1.9424    0.0000 H   0  0  0  0  0  0  0  0  0  0  0  0
    2.8660    1.0717    0.0000 H   0  0  0  0  0  0  0  0  0  0  0  0
    2.8660   -2.1683    0.0000 H   0  0  0  0  0  0  0  0  0  0  0  0
    4.7826    2.3653    0.0000 H   0  0  0  0  0  0  0  0  0  0  0  0
    3.9070    2.4127    0.0000 H   0  0  0  0  0  0  0  0  0  0  0  0
    3.8596    1.5372    0.0000 H   0  0  0  0  0  0  0  0  0  0  0  0
    1.4631    0.2617    0.0000 H   0  0  0  0  0  0  0  0  0  0  0  0
    1.4631   -1.3583    0.0000 H   0  0  0  0  0  0  0  0  0  0  0  0
    6.4519   -1.9513    0.0000 H   0  0  0  0  0  0  0  0  0  0  0  0
    7.7619   -2.0343    0.0000 H   0  0  0  0  0  0  0  0  0  0  0  0
    8.3819   -1.4143    0.0000 H   0  0  0  0  0  0  0  0  0  0  0  0
    7.7619   -0.7943    0.0000 H   0  0  0  0  0  0  0  0  0  0  0  0
  1 11  2  0  0  0  0
  2  4  1  0  0  0  0
  2  5  1  0  0  0  0
  2  7  1  0  0  0  0
  3 11  1  0  0  0  0
  3 15  1  0  0  0  0
  3 26  1  0  0  0  0
  4  6  1  0  0  0  0
  4  9  2  0  0  0  0
  5  8  2  0  0  0  0
  5 11  1  0  0  0  0
  6  8  1  0  0  0  0
  6 10  2  0  0  0  0
  7 12  1  0  0  0  0
  7 16  1  0  0  0  0
  7 17  1  0  0  0  0
  8 18  1  0  0  0  0
  9 13  1  0  0  0  0
  9 19  1  0  0  0  0
 10 14  1  0  0  0  0
 10 20  1  0  0  0  0
 12 21  1  0  0  0  0
 12 22  1  0  0  0  0
 12 23  1  0  0  0  0
 13 14  2  0  0  0  0
 13 24  1  0  0  0  0
 14 25  1  0  0  0  0
 15 27  1  0  0  0  0
 15 28  1  0  0  0  0
 15 29  1  0  0  0  0
M  END
> <PUBCHEM_COMPOUND_CID>
47334837

> <PUBCHEM_COMPOUND_CANONICALIZED>
1

> <PUBCHEM_CACTVS_COMPLEXITY>
242

> <PUBCHEM_CACTVS_HBOND_ACCEPTOR>
1

> <PUBCHEM_CACTVS_HBOND_DONOR>
1

> <PUBCHEM_CACTVS_ROTATABLE_BOND>
2

> <PUBCHEM_CACTVS_SUBSKEYS>
AAADccBzIAAAAAAAAAAAAAAAAAAAAWAAAAAwAAAAAAAAAFgB8AAAHgAQAAAADAjBngQywPPMEACoAyVyVACCgCAnAiAI2KG4ZNgIYPLAlbGUIQhgggDIyYcYiYCeAAAAAAACAAAAAAAAAAQAAAAAAAAAAA==

> <PUBCHEM_IUPAC_OPENEYE_NAME>
1-ethyl-N-methyl-indole-2-carboxamide

> <PUBCHEM_IUPAC_CAS_NAME>
1-ethyl-N-methyl-2-indolecarboxamide

> <PUBCHEM_IUPAC_NAME>
1-ethyl-N-methylindole-2-carboxamide

> <PUBCHEM_IUPAC_SYSTEMATIC_NAME>
1-ethyl-N-methyl-indole-2-carboxamide

> <PUBCHEM_IUPAC_TRADITIONAL_NAME>
1-ethyl-N-methyl-indole-2-carboxamide

> <PUBCHEM_IUPAC_INCHI>
InChI=1S/C12H14N2O/c1-3-14-10-7-5-4-6-9(10)8-11(14)12(15)13-2/h4-8H,3H2,1-2H3,(H,13,15)

> <PUBCHEM_IUPAC_INCHIKEY>
PYOKAIOEIYBLKX-UHFFFAOYSA-N

> <PUBCHEM_XLOGP3>
2.1

> <PUBCHEM_EXACT_MASS>
202.110613

> <PUBCHEM_MOLECULAR_FORMULA>
C12H14N2O

> <PUBCHEM_MOLECULAR_WEIGHT>
202.25236

> <PUBCHEM_OPENEYE_CAN_SMILES>
CCN1C2=CC=CC=C2C=C1C(=O)NC

> <PUBCHEM_OPENEYE_ISO_SMILES>
CCN1C2=CC=CC=C2C=C1C(=O)NC

> <PUBCHEM_CACTVS_TPSA>
34

> <PUBCHEM_MONOISOTOPIC_WEIGHT>
202.110613

> <PUBCHEM_TOTAL_CHARGE>
0

> <PUBCHEM_HEAVY_ATOM_COUNT>
15

> <PUBCHEM_ATOM_DEF_STEREO_COUNT>
0

> <PUBCHEM_ATOM_UDEF_STEREO_COUNT>
0

> <PUBCHEM_BOND_DEF_STEREO_COUNT>
0

> <PUBCHEM_BOND_UDEF_STEREO_COUNT>
0

> <PUBCHEM_ISOTOPIC_ATOM_COUNT>
0

> <PUBCHEM_COMPONENT_COUNT>
1

> <PUBCHEM_CACTVS_TAUTO_COUNT>
2

> <PUBCHEM_COORDINATE_TYPE>
1
5
255

> <PUBCHEM_BONDANNOTATIONS>
10  14  8
13  14  8
2  4  8
2  5  8
4  6  8
4  9  8
5  8  8
6  10  8
6  8  8
9  13  8

$$$$
