62117238
  -OEChem-11301218222D

 42 43  0     1  0  0  0  0  0999 V2000
    5.4641   -0.7073    0.0000 N   0  0  0  0  0  0  0  0  0  0  0  0
    6.3301   -0.2073    0.0000 C   0  0  3  0  0  0  0  0  0  0  0  0
    6.3301    0.7927    0.0000 C   0  0  0  0  0  0  0  0  0  0  0  0
    7.1962   -0.7073    0.0000 C   0  0  0  0  0  0  0  0  0  0  0  0
    4.5981   -0.2073    0.0000 C   0  0  3  0  0  0  0  0  0  0  0  0
    7.1962    1.2927    0.0000 C   0  0  0  0  0  0  0  0  0  0  0  0
    8.0622   -0.2073    0.0000 C   0  0  0  0  0  0  0  0  0  0  0  0
    8.0622    0.7927    0.0000 C   0  0  0  0  0  0  0  0  0  0  0  0
    3.7320   -0.7073    0.0000 C   0  0  0  0  0  0  0  0  0  0  0  0
    4.5981    0.7927    0.0000 C   0  0  0  0  0  0  0  0  0  0  0  0
    2.8660   -0.2073    0.0000 C   0  0  0  0  0  0  0  0  0  0  0  0
    8.9561   -0.7420    0.0000 C   0  0  0  0  0  0  0  0  0  0  0  0
    8.9561    1.3273    0.0000 C   0  0  0  0  0  0  0  0  0  0  0  0
    3.7320    1.2927    0.0000 C   0  0  0  0  0  0  0  0  0  0  0  0
    9.8622   -0.2281    0.0000 C   0  0  0  0  0  0  0  0  0  0  0  0
    9.8622    0.8135    0.0000 C   0  0  0  0  0  0  0  0  0  0  0  0
    2.0000   -0.7073    0.0000 C   0  0  0  0  0  0  0  0  0  0  0  0
    5.7932    0.1027    0.0000 H   0  0  0  0  0  0  0  0  0  0  0  0
    6.1181    1.3753    0.0000 H   0  0  0  0  0  0  0  0  0  0  0  0
    5.7196    0.6850    0.0000 H   0  0  0  0  0  0  0  0  0  0  0  0
    6.7976   -1.1823    0.0000 H   0  0  0  0  0  0  0  0  0  0  0  0
    7.5947   -1.1823    0.0000 H   0  0  0  0  0  0  0  0  0  0  0  0
    4.5981   -0.8273    0.0000 H   0  0  0  0  0  0  0  0  0  0  0  0
    5.4641   -1.3273    0.0000 H   0  0  0  0  0  0  0  0  0  0  0  0
    7.5947    1.7676    0.0000 H   0  0  0  0  0  0  0  0  0  0  0  0
    6.7976    1.7676    0.0000 H   0  0  0  0  0  0  0  0  0  0  0  0
    3.3335   -1.1823    0.0000 H   0  0  0  0  0  0  0  0  0  0  0  0
    4.1306   -1.1823    0.0000 H   0  0  0  0  0  0  0  0  0  0  0  0
    5.2087    0.6850    0.0000 H   0  0  0  0  0  0  0  0  0  0  0  0
    4.8101    1.3753    0.0000 H   0  0  0  0  0  0  0  0  0  0  0  0
    3.2646    0.2676    0.0000 H   0  0  0  0  0  0  0  0  0  0  0  0
    2.4675    0.2676    0.0000 H   0  0  0  0  0  0  0  0  0  0  0  0
    8.9490   -1.3620    0.0000 H   0  0  0  0  0  0  0  0  0  0  0  0
    8.9490    1.9473    0.0000 H   0  0  0  0  0  0  0  0  0  0  0  0
    4.0420    1.8296    0.0000 H   0  0  0  0  0  0  0  0  0  0  0  0
    3.1951    1.6027    0.0000 H   0  0  0  0  0  0  0  0  0  0  0  0
    3.4220    0.7557    0.0000 H   0  0  0  0  0  0  0  0  0  0  0  0
   10.3979   -0.5402    0.0000 H   0  0  0  0  0  0  0  0  0  0  0  0
   10.3979    1.1256    0.0000 H   0  0  0  0  0  0  0  0  0  0  0  0
    1.6900   -0.1704    0.0000 H   0  0  0  0  0  0  0  0  0  0  0  0
    1.4631   -1.0173    0.0000 H   0  0  0  0  0  0  0  0  0  0  0  0
    2.3100   -1.2443    0.0000 H   0  0  0  0  0  0  0  0  0  0  0  0
  1  2  1  0  0  0  0
  1  5  1  0  0  0  0
  1 24  1  0  0  0  0
  2  3  1  0  0  0  0
  2  4  1  0  0  0  0
  2 18  1  0  0  0  0
  3  6  1  0  0  0  0
  3 19  1  0  0  0  0
  3 20  1  0  0  0  0
  4  7  1  0  0  0  0
  4 21  1  0  0  0  0
  4 22  1  0  0  0  0
  5  9  1  0  0  0  0
  5 10  1  0  0  0  0
  5 23  1  0  0  0  0
  6  8  1  0  0  0  0
  6 25  1  0  0  0  0
  6 26  1  0  0  0  0
  7  8  1  0  0  0  0
  7 12  2  0  0  0  0
  8 13  2  0  0  0  0
  9 11  1  0  0  0  0
  9 27  1  0  0  0  0
  9 28  1  0  0  0  0
 10 14  1  0  0  0  0
 10 29  1  0  0  0  0
 10 30  1  0  0  0  0
 11 17  1  0  0  0  0
 11 31  1  0  0  0  0
 11 32  1  0  0  0  0
 12 15  1  0  0  0  0
 12 33  1  0  0  0  0
 13 16  1  0  0  0  0
 13 34  1  0  0  0  0
 14 35  1  0  0  0  0
 14 36  1  0  0  0  0
 14 37  1  0  0  0  0
 15 16  2  0  0  0  0
 15 38  1  0  0  0  0
 16 39  1  0  0  0  0
 17 40  1  0  0  0  0
 17 41  1  0  0  0  0
 17 42  1  0  0  0  0
M  END
> <PUBCHEM_COMPOUND_CID>
62117238

> <PUBCHEM_COMPOUND_CANONICALIZED>
1

> <PUBCHEM_CACTVS_COMPLEXITY>
214

> <PUBCHEM_CACTVS_HBOND_ACCEPTOR>
1

> <PUBCHEM_CACTVS_HBOND_DONOR>
1

> <PUBCHEM_CACTVS_ROTATABLE_BOND>
5

> <PUBCHEM_CACTVS_SUBSKEYS>
AAADceB6AAAAAAAAAAAAAAAAAAAAAAAAAAAwYAAAAAAAAADBAAAAHAAQAAAADCjBGAQyAILAAACAAiBCAAACAAAgAAAIiIAIAIgIICKAkRGEIAAgkACIiAcQgIAOgAAAAAAQAAAQAACAACAAAAAAAAAAAA==

> <PUBCHEM_IUPAC_OPENEYE_NAME>
N-(1-ethylbutyl)tetralin-2-amine

> <PUBCHEM_IUPAC_CAS_NAME>
N-hexan-3-yl-1,2,3,4-tetrahydronaphthalen-2-amine

> <PUBCHEM_IUPAC_NAME>
N-hexan-3-yl-1,2,3,4-tetrahydronaphthalen-2-amine

> <PUBCHEM_IUPAC_SYSTEMATIC_NAME>
N-hexan-3-yl-1,2,3,4-tetrahydronaphthalen-2-amine

> <PUBCHEM_IUPAC_TRADITIONAL_NAME>
1-ethylbutyl(tetralin-2-yl)amine

> <PUBCHEM_IUPAC_INCHI>
InChI=1S/C16H25N/c1-3-7-15(4-2)17-16-11-10-13-8-5-6-9-14(13)12-16/h5-6,8-9,15-17H,3-4,7,10-12H2,1-2H3

> <PUBCHEM_IUPAC_INCHIKEY>
ZYJXHIXTYCGVBH-UHFFFAOYSA-N

> <PUBCHEM_XLOGP3>
4.6

> <PUBCHEM_EXACT_MASS>
231.1987

> <PUBCHEM_MOLECULAR_FORMULA>
C16H25N

> <PUBCHEM_MOLECULAR_WEIGHT>
231.3764

> <PUBCHEM_OPENEYE_CAN_SMILES>
CCCC(CC)NC1CCC2=CC=CC=C2C1

> <PUBCHEM_OPENEYE_ISO_SMILES>
CCCC(CC)NC1CCC2=CC=CC=C2C1

> <PUBCHEM_CACTVS_TPSA>
12

> <PUBCHEM_MONOISOTOPIC_WEIGHT>
231.1987

> <PUBCHEM_TOTAL_CHARGE>
0

> <PUBCHEM_HEAVY_ATOM_COUNT>
17

> <PUBCHEM_ATOM_DEF_STEREO_COUNT>
0

> <PUBCHEM_ATOM_UDEF_STEREO_COUNT>
2

> <PUBCHEM_BOND_DEF_STEREO_COUNT>
0

> <PUBCHEM_BOND_UDEF_STEREO_COUNT>
0

> <PUBCHEM_ISOTOPIC_ATOM_COUNT>
0

> <PUBCHEM_COMPONENT_COUNT>
1

> <PUBCHEM_CACTVS_TAUTO_COUNT>
1

> <PUBCHEM_COORDINATE_TYPE>
1
5
255

> <PUBCHEM_BONDANNOTATIONS>
2  1  3
12  15  8
13  16  8
15  16  8
5  10  3
7  12  8
7  8  8
8  13  8

$$$$
62124332
  -OEChem-11301218222D

 42 44  0     1  0  0  0  0  0999 V2000
    6.6353   -0.4923    0.0000 O   0  0  0  0  0  0  0  0  0  0  0  0
    6.2781    1.2025    0.0000 N   0  0  0  0  0  0  0  0  0  0  0  0
    4.6783   -2.5142    0.0000 N   0  0  0  0  0  0  0  0  0  0  0  0
    7.5673    2.3592    0.0000 C   0  0  3  0  0  0  0  0  0  0  0  0
    7.2566    1.4087    0.0000 C   0  0  3  0  0  0  0  0  0  0  0  0
    6.8994    3.1035    0.0000 C   0  0  0  0  0  0  0  0  0  0  0  0
    5.9209    2.8973    0.0000 C   0  0  0  0  0  0  0  0  0  0  0  0
    5.6103    1.9468    0.0000 C   0  0  0  0  0  0  0  0  0  0  0  0
    8.5458    2.5655    0.0000 C   0  0  0  0  0  0  0  0  0  0  0  0
    7.9244    0.6644    0.0000 C   0  0  0  0  0  0  0  0  0  0  0  0
    5.9674    0.2520    0.0000 C   0  0  0  0  0  0  0  0  0  0  0  0
    4.9889    0.0458    0.0000 C   0  0  0  0  0  0  0  0  0  0  0  0
    4.6783   -0.9048    0.0000 C   0  0  0  0  0  0  0  0  0  0  0  0
    3.7320   -1.2095    0.0000 C   0  0  0  0  0  0  0  0  0  0  0  0
    5.2619   -1.7095    0.0000 C   0  0  0  0  0  0  0  0  0  0  0  0
    3.7320   -2.2095    0.0000 C   0  0  0  0  0  0  0  0  0  0  0  0
    2.8660   -0.7095    0.0000 C   0  0  0  0  0  0  0  0  0  0  0  0
    2.8660   -2.7095    0.0000 C   0  0  0  0  0  0  0  0  0  0  0  0
    2.0000   -1.2095    0.0000 C   0  0  0  0  0  0  0  0  0  0  0  0
    2.0000   -2.2095    0.0000 C   0  0  0  0  0  0  0  0  0  0  0  0
    7.9813    1.8978    0.0000 H   0  0  0  0  0  0  0  0  0  0  0  0
    7.0640    0.8194    0.0000 H   0  0  0  0  0  0  0  0  0  0  0  0
    7.4258    3.4312    0.0000 H   0  0  0  0  0  0  0  0  0  0  0  0
    6.6682    3.6788    0.0000 H   0  0  0  0  0  0  0  0  0  0  0  0
    5.9004    3.5170    0.0000 H   0  0  0  0  0  0  0  0  0  0  0  0
    5.3071    2.9847    0.0000 H   0  0  0  0  0  0  0  0  0  0  0  0
    5.0633    2.2388    0.0000 H   0  0  0  0  0  0  0  0  0  0  0  0
    5.2277    1.4589    0.0000 H   0  0  0  0  0  0  0  0  0  0  0  0
    8.6736    1.9588    0.0000 H   0  0  0  0  0  0  0  0  0  0  0  0
    9.1524    2.6933    0.0000 H   0  0  0  0  0  0  0  0  0  0  0  0
    8.4179    3.1721    0.0000 H   0  0  0  0  0  0  0  0  0  0  0  0
    7.4630    0.2504    0.0000 H   0  0  0  0  0  0  0  0  0  0  0  0
    8.3385    0.2030    0.0000 H   0  0  0  0  0  0  0  0  0  0  0  0
    8.3859    1.0785    0.0000 H   0  0  0  0  0  0  0  0  0  0  0  0
    4.9684    0.6654    0.0000 H   0  0  0  0  0  0  0  0  0  0  0  0
    4.3751    0.1331    0.0000 H   0  0  0  0  0  0  0  0  0  0  0  0
    5.8819   -1.7095    0.0000 H   0  0  0  0  0  0  0  0  0  0  0  0
    4.8709   -3.1035    0.0000 H   0  0  0  0  0  0  0  0  0  0  0  0
    2.8660   -0.0895    0.0000 H   0  0  0  0  0  0  0  0  0  0  0  0
    2.8660   -3.3295    0.0000 H   0  0  0  0  0  0  0  0  0  0  0  0
    1.4631   -0.8995    0.0000 H   0  0  0  0  0  0  0  0  0  0  0  0
    1.4631   -2.5195    0.0000 H   0  0  0  0  0  0  0  0  0  0  0  0
  1 11  2  0  0  0  0
  2  5  1  0  0  0  0
  2  8  1  0  0  0  0
  2 11  1  0  0  0  0
  3 15  1  0  0  0  0
  3 16  1  0  0  0  0
  3 38  1  0  0  0  0
  4  5  1  0  0  0  0
  4  6  1  0  0  0  0
  4  9  1  0  0  0  0
  4 21  1  0  0  0  0
  5 10  1  0  0  0  0
  5 22  1  0  0  0  0
  6  7  1  0  0  0  0
  6 23  1  0  0  0  0
  6 24  1  0  0  0  0
  7  8  1  0  0  0  0
  7 25  1  0  0  0  0
  7 26  1  0  0  0  0
  8 27  1  0  0  0  0
  8 28  1  0  0  0  0
  9 29  1  0  0  0  0
  9 30  1  0  0  0  0
  9 31  1  0  0  0  0
 10 32  1  0  0  0  0
 10 33  1  0  0  0  0
 10 34  1  0  0  0  0
 11 12  1  0  0  0  0
 12 13  1  0  0  0  0
 12 35  1  0  0  0  0
 12 36  1  0  0  0  0
 13 14  1  0  0  0  0
 13 15  2  0  0  0  0
 14 16  1  0  0  0  0
 14 17  2  0  0  0  0
 15 37  1  0  0  0  0
 16 18  2  0  0  0  0
 17 19  1  0  0  0  0
 17 39  1  0  0  0  0
 18 20  1  0  0  0  0
 18 40  1  0  0  0  0
 19 20  2  0  0  0  0
 19 41  1  0  0  0  0
 20 42  1  0  0  0  0
M  END
> <PUBCHEM_COMPOUND_CID>
62124332

> <PUBCHEM_COMPOUND_CANONICALIZED>
1

> <PUBCHEM_CACTVS_COMPLEXITY>
357

> <PUBCHEM_CACTVS_HBOND_ACCEPTOR>
1

> <PUBCHEM_CACTVS_HBOND_DONOR>
1

> <PUBCHEM_CACTVS_ROTATABLE_BOND>
2

> <PUBCHEM_CACTVS_SUBSKEYS>
AAADceB7IAAAAAAAAAAAAAAAAAAAAWAAAAA8QAAAAAAAAFgB8AAAHgAQAAAADSjBngQ+wPPJkACoAzV3VACCgCAxAiAI2aE4ZJgIIPLAlZGEIAhglgDIyAccicCegAAAAAACAAAAAAAAAAQAAAAAAAAAAA==

> <PUBCHEM_IUPAC_OPENEYE_NAME>
1-(2,3-dimethyl-1-piperidyl)-2-(1H-indol-3-yl)ethanone

> <PUBCHEM_IUPAC_CAS_NAME>
1-(2,3-dimethyl-1-piperidinyl)-2-(1H-indol-3-yl)ethanone

> <PUBCHEM_IUPAC_NAME>
1-(2,3-dimethylpiperidin-1-yl)-2-(1H-indol-3-yl)ethanone

> <PUBCHEM_IUPAC_SYSTEMATIC_NAME>
1-(2,3-dimethylpiperidin-1-yl)-2-(1H-indol-3-yl)ethanone

> <PUBCHEM_IUPAC_TRADITIONAL_NAME>
1-(2,3-dimethylpiperidino)-2-(1H-indol-3-yl)ethanone

> <PUBCHEM_IUPAC_INCHI>
InChI=1S/C17H22N2O/c1-12-6-5-9-19(13(12)2)17(20)10-14-11-18-16-8-4-3-7-15(14)16/h3-4,7-8,11-13,18H,5-6,9-10H2,1-2H3

> <PUBCHEM_IUPAC_INCHIKEY>
OCPPYJPHTFHQQC-UHFFFAOYSA-N

> <PUBCHEM_XLOGP3>
3.1

> <PUBCHEM_EXACT_MASS>
270.173213

> <PUBCHEM_MOLECULAR_FORMULA>
C17H22N2O

> <PUBCHEM_MOLECULAR_WEIGHT>
270.36938

> <PUBCHEM_OPENEYE_CAN_SMILES>
CC1CCCN(C1C)C(=O)CC2=CNC3=CC=CC=C32

> <PUBCHEM_OPENEYE_ISO_SMILES>
CC1CCCN(C1C)C(=O)CC2=CNC3=CC=CC=C32

> <PUBCHEM_CACTVS_TPSA>
36.1

> <PUBCHEM_MONOISOTOPIC_WEIGHT>
270.173213

> <PUBCHEM_TOTAL_CHARGE>
0

> <PUBCHEM_HEAVY_ATOM_COUNT>
20

> <PUBCHEM_ATOM_DEF_STEREO_COUNT>
0

> <PUBCHEM_ATOM_UDEF_STEREO_COUNT>
2

> <PUBCHEM_BOND_DEF_STEREO_COUNT>
0

> <PUBCHEM_BOND_UDEF_STEREO_COUNT>
0

> <PUBCHEM_ISOTOPIC_ATOM_COUNT>
0

> <PUBCHEM_COMPONENT_COUNT>
1

> <PUBCHEM_CACTVS_TAUTO_COUNT>
1

> <PUBCHEM_COORDINATE_TYPE>
1
5
255

> <PUBCHEM_BONDANNOTATIONS>
13  14  8
13  15  8
14  16  8
14  17  8
16  18  8
17  19  8
18  20  8
19  20  8
3  15  8
3  16  8
4  9  3
5  10  3

$$$$
62124333
  -OEChem-11301218222D

 45 47  0     1  0  0  0  0  0999 V2000
    5.6103    2.2158    0.0000 O   0  0  0  0  0  0  0  0  0  0  0  0
    7.2566    1.6778    0.0000 N   0  0  0  0  0  0  0  0  0  0  0  0
    4.6783   -2.2452    0.0000 N   0  0  0  0  0  0  0  0  0  0  0  0
    8.9030    1.1397    0.0000 C   0  0  3  0  0  0  0  0  0  0  0  0
    7.9244    0.9335    0.0000 C   0  0  3  0  0  0  0  0  0  0  0  0
    9.2136    2.0902    0.0000 C   0  0  0  0  0  0  0  0  0  0  0  0
    8.5458    2.8345    0.0000 C   0  0  0  0  0  0  0  0  0  0  0  0
    7.5673    2.6283    0.0000 C   0  0  0  0  0  0  0  0  0  0  0  0
    9.5708    0.3954    0.0000 C   0  0  0  0  0  0  0  0  0  0  0  0
    7.6138   -0.0171    0.0000 C   0  0  0  0  0  0  0  0  0  0  0  0
    6.2781    1.4715    0.0000 C   0  0  0  0  0  0  0  0  0  0  0  0
    5.9674    0.5210    0.0000 C   0  0  0  0  0  0  0  0  0  0  0  0
    4.9889    0.3148    0.0000 C   0  0  0  0  0  0  0  0  0  0  0  0
    4.6783   -0.6357    0.0000 C   0  0  0  0  0  0  0  0  0  0  0  0
    3.7320   -0.9404    0.0000 C   0  0  0  0  0  0  0  0  0  0  0  0
    5.2619   -1.4404    0.0000 C   0  0  0  0  0  0  0  0  0  0  0  0
    3.7320   -1.9404    0.0000 C   0  0  0  0  0  0  0  0  0  0  0  0
    2.8660   -0.4404    0.0000 C   0  0  0  0  0  0  0  0  0  0  0  0
    2.8660   -2.4404    0.0000 C   0  0  0  0  0  0  0  0  0  0  0  0
    2.0000   -0.9404    0.0000 C   0  0  0  0  0  0  0  0  0  0  0  0
    2.0000   -1.9404    0.0000 C   0  0  0  0  0  0  0  0  0  0  0  0
    9.5096    1.2675    0.0000 H   0  0  0  0  0  0  0  0  0  0  0  0
    7.3178    0.8056    0.0000 H   0  0  0  0  0  0  0  0  0  0  0  0
    9.7605    1.7982    0.0000 H   0  0  0  0  0  0  0  0  0  0  0  0
    9.5962    2.5781    0.0000 H   0  0  0  0  0  0  0  0  0  0  0  0
    9.0721    3.1621    0.0000 H   0  0  0  0  0  0  0  0  0  0  0  0
    8.3145    3.4098    0.0000 H   0  0  0  0  0  0  0  0  0  0  0  0
    7.5467    3.2479    0.0000 H   0  0  0  0  0  0  0  0  0  0  0  0
    6.9534    2.7156    0.0000 H   0  0  0  0  0  0  0  0  0  0  0  0
    9.1093   -0.0187    0.0000 H   0  0  0  0  0  0  0  0  0  0  0  0
    9.9849   -0.0661    0.0000 H   0  0  0  0  0  0  0  0  0  0  0  0
   10.0323    0.8094    0.0000 H   0  0  0  0  0  0  0  0  0  0  0  0
    7.0245    0.1756    0.0000 H   0  0  0  0  0  0  0  0  0  0  0  0
    7.4212   -0.6064    0.0000 H   0  0  0  0  0  0  0  0  0  0  0  0
    8.2031   -0.2097    0.0000 H   0  0  0  0  0  0  0  0  0  0  0  0
    5.9880   -0.0986    0.0000 H   0  0  0  0  0  0  0  0  0  0  0  0
    6.5812    0.4337    0.0000 H   0  0  0  0  0  0  0  0  0  0  0  0
    4.9684    0.9345    0.0000 H   0  0  0  0  0  0  0  0  0  0  0  0
    4.3751    0.4022    0.0000 H   0  0  0  0  0  0  0  0  0  0  0  0
    5.8819   -1.4404    0.0000 H   0  0  0  0  0  0  0  0  0  0  0  0
    4.8709   -2.8345    0.0000 H   0  0  0  0  0  0  0  0  0  0  0  0
    2.8660    0.1796    0.0000 H   0  0  0  0  0  0  0  0  0  0  0  0
    2.8660   -3.0604    0.0000 H   0  0  0  0  0  0  0  0  0  0  0  0
    1.4631   -0.6304    0.0000 H   0  0  0  0  0  0  0  0  0  0  0  0
    1.4631   -2.2504    0.0000 H   0  0  0  0  0  0  0  0  0  0  0  0
  1 11  2  0  0  0  0
  2  5  1  0  0  0  0
  2  8  1  0  0  0  0
  2 11  1  0  0  0  0
  3 16  1  0  0  0  0
  3 17  1  0  0  0  0
  3 41  1  0  0  0  0
  4  5  1  0  0  0  0
  4  6  1  0  0  0  0
  4  9  1  0  0  0  0
  4 22  1  0  0  0  0
  5 10  1  0  0  0  0
  5 23  1  0  0  0  0
  6  7  1  0  0  0  0
  6 24  1  0  0  0  0
  6 25  1  0  0  0  0
  7  8  1  0  0  0  0
  7 26  1  0  0  0  0
  7 27  1  0  0  0  0
  8 28  1  0  0  0  0
  8 29  1  0  0  0  0
  9 30  1  0  0  0  0
  9 31  1  0  0  0  0
  9 32  1  0  0  0  0
 10 33  1  0  0  0  0
 10 34  1  0  0  0  0
 10 35  1  0  0  0  0
 11 12  1  0  0  0  0
 12 13  1  0  0  0  0
 12 36  1  0  0  0  0
 12 37  1  0  0  0  0
 13 14  1  0  0  0  0
 13 38  1  0  0  0  0
 13 39  1  0  0  0  0
 14 15  1  0  0  0  0
 14 16  2  0  0  0  0
 15 17  1  0  0  0  0
 15 18  2  0  0  0  0
 16 40  1  0  0  0  0
 17 19  2  0  0  0  0
 18 20  1  0  0  0  0
 18 42  1  0  0  0  0
 19 21  1  0  0  0  0
 19 43  1  0  0  0  0
 20 21  2  0  0  0  0
 20 44  1  0  0  0  0
 21 45  1  0  0  0  0
M  END
> <PUBCHEM_COMPOUND_CID>
62124333

> <PUBCHEM_COMPOUND_CANONICALIZED>
1

> <PUBCHEM_CACTVS_COMPLEXITY>
370

> <PUBCHEM_CACTVS_HBOND_ACCEPTOR>
1

> <PUBCHEM_CACTVS_HBOND_DONOR>
1

> <PUBCHEM_CACTVS_ROTATABLE_BOND>
3

> <PUBCHEM_CACTVS_SUBSKEYS>
AAADceB7IAAAAAAAAAAAAAAAAAAAAWAAAAA8QAAAAAAAAFgB8AAAHgAQAAAADSjBngQ+wPPJkACoAzV3VACCgCAxAiAI2aE4ZJgIIPLAkZGEIAhglgDIyAcYicCOgAAAAAACAAAAAAAAAAQAAAAAAAAAAA==

> <PUBCHEM_IUPAC_OPENEYE_NAME>
1-(2,3-dimethyl-1-piperidyl)-3-(1H-indol-3-yl)propan-1-one

> <PUBCHEM_IUPAC_CAS_NAME>
1-(2,3-dimethyl-1-piperidinyl)-3-(1H-indol-3-yl)-1-propanone

> <PUBCHEM_IUPAC_NAME>
1-(2,3-dimethylpiperidin-1-yl)-3-(1H-indol-3-yl)propan-1-one

> <PUBCHEM_IUPAC_SYSTEMATIC_NAME>
1-(2,3-dimethylpiperidin-1-yl)-3-(1H-indol-3-yl)propan-1-one

> <PUBCHEM_IUPAC_TRADITIONAL_NAME>
1-(2,3-dimethylpiperidino)-3-(1H-indol-3-yl)propan-1-one

> <PUBCHEM_IUPAC_INCHI>
InChI=1S/C18H24N2O/c1-13-6-5-11-20(14(13)2)18(21)10-9-15-12-19-17-8-4-3-7-16(15)17/h3-4,7-8,12-14,19H,5-6,9-11H2,1-2H3

> <PUBCHEM_IUPAC_INCHIKEY>
DJRNJXWWRODJOI-UHFFFAOYSA-N

> <PUBCHEM_XLOGP3>
3.4

> <PUBCHEM_EXACT_MASS>
284.188863

> <PUBCHEM_MOLECULAR_FORMULA>
C18H24N2O

> <PUBCHEM_MOLECULAR_WEIGHT>
284.39596

> <PUBCHEM_OPENEYE_CAN_SMILES>
CC1CCCN(C1C)C(=O)CCC2=CNC3=CC=CC=C32

> <PUBCHEM_OPENEYE_ISO_SMILES>
CC1CCCN(C1C)C(=O)CCC2=CNC3=CC=CC=C32

> <PUBCHEM_CACTVS_TPSA>
36.1

> <PUBCHEM_MONOISOTOPIC_WEIGHT>
284.188863

> <PUBCHEM_TOTAL_CHARGE>
0

> <PUBCHEM_HEAVY_ATOM_COUNT>
21

> <PUBCHEM_ATOM_DEF_STEREO_COUNT>
0

> <PUBCHEM_ATOM_UDEF_STEREO_COUNT>
2

> <PUBCHEM_BOND_DEF_STEREO_COUNT>
0

> <PUBCHEM_BOND_UDEF_STEREO_COUNT>
0

> <PUBCHEM_ISOTOPIC_ATOM_COUNT>
0

> <PUBCHEM_COMPONENT_COUNT>
1

> <PUBCHEM_CACTVS_TAUTO_COUNT>
1

> <PUBCHEM_COORDINATE_TYPE>
1
5
255

> <PUBCHEM_BONDANNOTATIONS>
14  15  8
14  16  8
15  17  8
15  18  8
17  19  8
18  20  8
19  21  8
20  21  8
3  16  8
3  17  8
4  9  3
5  10  3

$$$$
