41007399
  -OEChem-11301217492D

 47 50  0     1  0  0  0  0  0999 V2000
    8.6500    2.1767    0.0000 O   0  0  0  0  0  0  0  0  0  0  0  0
    6.5271   -0.5785    0.0000 C   0  0  2  0  0  0  0  0  0  0  0  0
    7.3931   -0.0785    0.0000 C   0  0  1  0  0  0  0  0  0  0  0  0
    5.6610   -0.0785    0.0000 C   0  0  2  0  0  0  0  0  0  0  0  0
    7.3931    0.9215    0.0000 C   0  0  1  0  0  0  0  0  0  0  0  0
    4.7510   -0.5854    0.0000 C   0  0  2  0  0  0  0  0  0  0  0  0
    5.6610    0.9215    0.0000 C   0  0  0  0  0  0  0  0  0  0  0  0
    6.5271    1.4215    0.0000 C   0  0  0  0  0  0  0  0  0  0  0  0
    8.3393   -0.3833    0.0000 C   0  0  0  0  0  0  0  0  0  0  0  0
    6.5431   -1.6200    0.0000 C   0  0  0  0  0  0  0  0  0  0  0  0
    8.3393    1.2262    0.0000 C   0  0  0  0  0  0  0  0  0  0  0  0
    8.9229    0.4215    0.0000 C   0  0  0  0  0  0  0  0  0  0  0  0
    4.7430   -1.6270    0.0000 C   0  0  0  0  0  0  0  0  0  0  0  0
    5.6451   -2.1478    0.0000 C   0  0  0  0  0  0  0  0  0  0  0  0
    7.3931    1.9215    0.0000 C   0  0  0  0  0  0  0  0  0  0  0  0
    4.7587    0.4146    0.0000 C   0  0  0  0  0  0  0  0  0  0  0  0
    3.8242   -0.0213    0.0000 C   0  0  0  0  0  0  0  0  0  0  0  0
    3.8076   -2.1767    0.0000 C   0  0  0  0  0  0  0  0  0  0  0  0
    2.8763   -0.5493    0.0000 C   0  0  0  0  0  0  0  0  0  0  0  0
    2.8680   -1.6342    0.0000 C   0  0  0  0  0  0  0  0  0  0  0  0
    2.0000   -2.1309    0.0000 C   0  0  0  0  0  0  0  0  0  0  0  0
    7.2664   -0.9979    0.0000 H   0  0  0  0  0  0  0  0  0  0  0  0
    7.4830   -0.9238    0.0000 H   0  0  0  0  0  0  0  0  0  0  0  0
    6.3972    0.3465    0.0000 H   0  0  0  0  0  0  0  0  0  0  0  0
    5.4490    1.5041    0.0000 H   0  0  0  0  0  0  0  0  0  0  0  0
    5.0504    0.8138    0.0000 H   0  0  0  0  0  0  0  0  0  0  0  0
    6.9256    1.8964    0.0000 H   0  0  0  0  0  0  0  0  0  0  0  0
    6.1285    1.8964    0.0000 H   0  0  0  0  0  0  0  0  0  0  0  0
    8.0883   -0.9502    0.0000 H   0  0  0  0  0  0  0  0  0  0  0  0
    8.8767   -0.6925    0.0000 H   0  0  0  0  0  0  0  0  0  0  0  0
    6.7612   -2.2004    0.0000 H   0  0  0  0  0  0  0  0  0  0  0  0
    7.1523   -1.5046    0.0000 H   0  0  0  0  0  0  0  0  0  0  0  0
    9.3838    0.0067    0.0000 H   0  0  0  0  0  0  0  0  0  0  0  0
    9.3838    0.8362    0.0000 H   0  0  0  0  0  0  0  0  0  0  0  0
    5.2478   -2.6238    0.0000 H   0  0  0  0  0  0  0  0  0  0  0  0
    6.0460   -2.6207    0.0000 H   0  0  0  0  0  0  0  0  0  0  0  0
    8.0131    1.9215    0.0000 H   0  0  0  0  0  0  0  0  0  0  0  0
    7.3931    2.5415    0.0000 H   0  0  0  0  0  0  0  0  0  0  0  0
    6.7731    1.9215    0.0000 H   0  0  0  0  0  0  0  0  0  0  0  0
    5.3787    0.4098    0.0000 H   0  0  0  0  0  0  0  0  0  0  0  0
    4.7635    1.0346    0.0000 H   0  0  0  0  0  0  0  0  0  0  0  0
    4.1388    0.4194    0.0000 H   0  0  0  0  0  0  0  0  0  0  0  0
    3.8361    0.5986    0.0000 H   0  0  0  0  0  0  0  0  0  0  0  0
    3.8100   -2.7967    0.0000 H   0  0  0  0  0  0  0  0  0  0  0  0
    2.3430   -0.2331    0.0000 H   0  0  0  0  0  0  0  0  0  0  0  0
    1.4643   -1.8188    0.0000 H   0  0  0  0  0  0  0  0  0  0  0  0
    1.9976   -2.7509    0.0000 H   0  0  0  0  0  0  0  0  0  0  0  0
  1 11  2  0  0  0  0
  2  3  1  0  0  0  0
  2  4  1  0  0  0  0
  2 10  1  0  0  0  0
  2 22  1  6  0  0  0
  3  5  1  0  0  0  0
  3  9  1  0  0  0  0
  3 23  1  6  0  0  0
  4  6  1  0  0  0  0
  4  7  1  0  0  0  0
  4 24  1  1  0  0  0
  5  8  1  0  0  0  0
  5 11  1  0  0  0  0
  5 15  1  6  0  0  0
  6 13  1  0  0  0  0
  6 16  1  6  0  0  0
  6 17  1  0  0  0  0
  7  8  1  0  0  0  0
  7 25  1  0  0  0  0
  7 26  1  0  0  0  0
  8 27  1  0  0  0  0
  8 28  1  0  0  0  0
  9 12  1  0  0  0  0
  9 29  1  0  0  0  0
  9 30  1  0  0  0  0
 10 14  1  0  0  0  0
 10 31  1  0  0  0  0
 10 32  1  0  0  0  0
 11 12  1  0  0  0  0
 12 33  1  0  0  0  0
 12 34  1  0  0  0  0
 13 14  1  0  0  0  0
 13 18  2  0  0  0  0
 14 35  1  0  0  0  0
 14 36  1  0  0  0  0
 15 37  1  0  0  0  0
 15 38  1  0  0  0  0
 15 39  1  0  0  0  0
 16 40  1  0  0  0  0
 16 41  1  0  0  0  0
 16 42  1  0  0  0  0
 17 19  2  0  0  0  0
 17 43  1  0  0  0  0
 18 20  1  0  0  0  0
 18 44  1  0  0  0  0
 19 20  1  0  0  0  0
 19 45  1  0  0  0  0
 20 21  2  0  0  0  0
 21 46  1  0  0  0  0
 21 47  1  0  0  0  0
M  END
> <PUBCHEM_COMPOUND_CID>
41007399

> <PUBCHEM_COMPOUND_CANONICALIZED>
1

> <PUBCHEM_CACTVS_COMPLEXITY>
581

> <PUBCHEM_CACTVS_HBOND_ACCEPTOR>
1

> <PUBCHEM_CACTVS_HBOND_DONOR>
0

> <PUBCHEM_CACTVS_ROTATABLE_BOND>
0

> <PUBCHEM_CACTVS_SUBSKEYS>
AAADceB4IAAAAAAAAAAAAAAAAAAAAYAAAAAwYIAAAAAAAGDAAAAAGgAAAAAADwSAgAACAAAAAACIAqBSAAAAAAAgAAAICAEAAAgIABIAAQAAAAAAgAAIgAMIiMCPgAAAAAAAAACAAAQAACAAAAAACAAAAA==

> <PUBCHEM_IUPAC_OPENEYE_NAME>
(8S,9R,10S,13R,14S)-10,13-dimethyl-3-methylene-7,8,9,11,12,14,15,16-octahydro-6H-cyclopenta[a]phenanthren-17-one

> <PUBCHEM_IUPAC_CAS_NAME>
(8S,9R,10S,13R,14S)-10,13-dimethyl-3-methylene-7,8,9,11,12,14,15,16-octahydro-6H-cyclopenta[a]phenanthren-17-one

> <PUBCHEM_IUPAC_NAME>
(8S,9R,10S,13R,14S)-10,13-dimethyl-3-methylidene-7,8,9,11,12,14,15,16-octahydro-6H-cyclopenta[a]phenanthren-17-one

> <PUBCHEM_IUPAC_SYSTEMATIC_NAME>
(8S,9R,10S,13R,14S)-10,13-dimethyl-3-methylidene-7,8,9,11,12,14,15,16-octahydro-6H-cyclopenta[a]phenanthren-17-one

> <PUBCHEM_IUPAC_TRADITIONAL_NAME>
(8S,9R,10S,13R,14S)-10,13-dimethyl-3-methylene-7,8,9,11,12,14,15,16-octahydro-6H-cyclopenta[a]phenanthren-17-one

> <PUBCHEM_IUPAC_INCHI>
InChI=1S/C20H26O/c1-13-8-10-19(2)14(12-13)4-5-15-16-6-7-18(21)20(16,3)11-9-17(15)19/h8,10,12,15-17H,1,4-7,9,11H2,2-3H3/t15-,16+,17-,19-,20-/m1/s1

> <PUBCHEM_IUPAC_INCHIKEY>
MYVNEGIKJOXOIB-JEIKXUOUSA-N

> <PUBCHEM_XLOGP3>
4.1

> <PUBCHEM_EXACT_MASS>
282.198365

> <PUBCHEM_MOLECULAR_FORMULA>
C20H26O

> <PUBCHEM_MOLECULAR_WEIGHT>
282.41984

> <PUBCHEM_OPENEYE_CAN_SMILES>
CC12CCC3C(C1CCC2=O)CCC4=CC(=C)C=CC34C

> <PUBCHEM_OPENEYE_ISO_SMILES>
C[C@@]12CC[C@@H]3[C@@H]([C@@H]1CCC2=O)CCC4=CC(=C)C=C[C@@]34C

> <PUBCHEM_CACTVS_TPSA>
17.1

> <PUBCHEM_MONOISOTOPIC_WEIGHT>
282.198365

> <PUBCHEM_TOTAL_CHARGE>
0

> <PUBCHEM_HEAVY_ATOM_COUNT>
21

> <PUBCHEM_ATOM_DEF_STEREO_COUNT>
5

> <PUBCHEM_ATOM_UDEF_STEREO_COUNT>
0

> <PUBCHEM_BOND_DEF_STEREO_COUNT>
0

> <PUBCHEM_BOND_UDEF_STEREO_COUNT>
0

> <PUBCHEM_ISOTOPIC_ATOM_COUNT>
0

> <PUBCHEM_COMPONENT_COUNT>
1

> <PUBCHEM_CACTVS_TAUTO_COUNT>
2

> <PUBCHEM_COORDINATE_TYPE>
1
5
255

> <PUBCHEM_BONDANNOTATIONS>
2  22  6
3  23  6
4  24  5
5  15  6
6  16  6

$$$$
41008770
  -OEChem-11301217492D

 44 45  0     1  0  0  0  0  0999 V2000
    4.3211    0.4807    0.0000 O   0  0  0  0  0  0  0  0  0  0  0  0
    5.9674   -0.0573    0.0000 N   0  0  0  0  0  0  0  0  0  0  0  0
    4.6783   -2.8236    0.0000 N   0  0  0  0  0  0  0  0  0  0  0  0
    7.2566    1.0994    0.0000 C   0  0  2  0  0  0  0  0  0  0  0  0
    7.5673    2.0499    0.0000 C   0  0  0  0  0  0  0  0  0  0  0  0
    6.2781    0.8932    0.0000 C   0  0  0  0  0  0  0  0  0  0  0  0
    7.9244    0.3551    0.0000 C   0  0  0  0  0  0  0  0  0  0  0  0
    8.5458    2.2561    0.0000 C   0  0  0  0  0  0  0  0  0  0  0  0
    8.8564    3.2066    0.0000 C   0  0  0  0  0  0  0  0  0  0  0  0
    8.9030    0.5613    0.0000 C   0  0  0  0  0  0  0  0  0  0  0  0
    4.9889   -0.2636    0.0000 C   0  0  0  0  0  0  0  0  0  0  0  0
    9.8349    3.4129    0.0000 C   0  0  0  0  0  0  0  0  0  0  0  0
    4.6783   -1.2141    0.0000 C   0  0  0  0  0  0  0  0  0  0  0  0
    3.7320   -1.5188    0.0000 C   0  0  0  0  0  0  0  0  0  0  0  0
    3.7320   -2.5188    0.0000 C   0  0  0  0  0  0  0  0  0  0  0  0
    5.2619   -2.0188    0.0000 C   0  0  0  0  0  0  0  0  0  0  0  0
    2.8660   -1.0188    0.0000 C   0  0  0  0  0  0  0  0  0  0  0  0
    2.8660   -3.0188    0.0000 C   0  0  0  0  0  0  0  0  0  0  0  0
    2.0000   -1.5188    0.0000 C   0  0  0  0  0  0  0  0  0  0  0  0
    2.0000   -2.5188    0.0000 C   0  0  0  0  0  0  0  0  0  0  0  0
    7.0640    0.5101    0.0000 H   0  0  0  0  0  0  0  0  0  0  0  0
    7.5467    2.6696    0.0000 H   0  0  0  0  0  0  0  0  0  0  0  0
    6.9534    2.1373    0.0000 H   0  0  0  0  0  0  0  0  0  0  0  0
    6.2575    1.5128    0.0000 H   0  0  0  0  0  0  0  0  0  0  0  0
    5.6643    0.9805    0.0000 H   0  0  0  0  0  0  0  0  0  0  0  0
    7.3981    0.0275    0.0000 H   0  0  0  0  0  0  0  0  0  0  0  0
    8.1557   -0.2202    0.0000 H   0  0  0  0  0  0  0  0  0  0  0  0
    8.5663    1.6365    0.0000 H   0  0  0  0  0  0  0  0  0  0  0  0
    9.1596    2.1688    0.0000 H   0  0  0  0  0  0  0  0  0  0  0  0
    8.8359    3.8263    0.0000 H   0  0  0  0  0  0  0  0  0  0  0  0
    8.2426    3.2940    0.0000 H   0  0  0  0  0  0  0  0  0  0  0  0
    6.3815   -0.5188    0.0000 H   0  0  0  0  0  0  0  0  0  0  0  0
    9.0308   -0.0454    0.0000 H   0  0  0  0  0  0  0  0  0  0  0  0
    9.5096    0.6892    0.0000 H   0  0  0  0  0  0  0  0  0  0  0  0
    8.7751    1.1680    0.0000 H   0  0  0  0  0  0  0  0  0  0  0  0
    9.9628    2.8062    0.0000 H   0  0  0  0  0  0  0  0  0  0  0  0
   10.4416    3.5407    0.0000 H   0  0  0  0  0  0  0  0  0  0  0  0
    9.7071    4.0196    0.0000 H   0  0  0  0  0  0  0  0  0  0  0  0
    5.8819   -2.0188    0.0000 H   0  0  0  0  0  0  0  0  0  0  0  0
    4.8709   -3.4129    0.0000 H   0  0  0  0  0  0  0  0  0  0  0  0
    2.8660   -0.3988    0.0000 H   0  0  0  0  0  0  0  0  0  0  0  0
    2.8660   -3.6388    0.0000 H   0  0  0  0  0  0  0  0  0  0  0  0
    1.4631   -1.2088    0.0000 H   0  0  0  0  0  0  0  0  0  0  0  0
    1.4631   -2.8288    0.0000 H   0  0  0  0  0  0  0  0  0  0  0  0
  1 11  2  0  0  0  0
  2  6  1  0  0  0  0
  2 11  1  0  0  0  0
  2 32  1  0  0  0  0
  3 15  1  0  0  0  0
  3 16  1  0  0  0  0
  3 40  1  0  0  0  0
  4  5  1  0  0  0  0
  4  6  1  1  0  0  0
  4  7  1  0  0  0  0
  4 21  1  0  0  0  0
  5  8  1  0  0  0  0
  5 22  1  0  0  0  0
  5 23  1  0  0  0  0
  6 24  1  0  0  0  0
  6 25  1  0  0  0  0
  7 10  1  0  0  0  0
  7 26  1  0  0  0  0
  7 27  1  0  0  0  0
  8  9  1  0  0  0  0
  8 28  1  0  0  0  0
  8 29  1  0  0  0  0
  9 12  1  0  0  0  0
  9 30  1  0  0  0  0
  9 31  1  0  0  0  0
 10 33  1  0  0  0  0
 10 34  1  0  0  0  0
 10 35  1  0  0  0  0
 11 13  1  0  0  0  0
 12 36  1  0  0  0  0
 12 37  1  0  0  0  0
 12 38  1  0  0  0  0
 13 14  1  0  0  0  0
 13 16  2  0  0  0  0
 14 15  1  0  0  0  0
 14 17  2  0  0  0  0
 15 18  2  0  0  0  0
 16 39  1  0  0  0  0
 17 19  1  0  0  0  0
 17 41  1  0  0  0  0
 18 20  1  0  0  0  0
 18 42  1  0  0  0  0
 19 20  2  0  0  0  0
 19 43  1  0  0  0  0
 20 44  1  0  0  0  0
M  END
> <PUBCHEM_COMPOUND_CID>
41008770

> <PUBCHEM_COMPOUND_CANONICALIZED>
1

> <PUBCHEM_CACTVS_COMPLEXITY>
305

> <PUBCHEM_CACTVS_HBOND_ACCEPTOR>
1

> <PUBCHEM_CACTVS_HBOND_DONOR>
2

> <PUBCHEM_CACTVS_ROTATABLE_BOND>
7

> <PUBCHEM_CACTVS_SUBSKEYS>
AAADceB7IAAAAAAAAAAAAAAAAAAAAWAAAAAwAAAAAAAAAFgB8AAAHgAQAAAADQjBngQ+wPLJkACoAzV3VACCgCA1AiAI2aE4ZNgIIPrA1ZGEIYhglgDIyccciMCOgAAAAAACAAAAAAAAAAQAAAAAAAAAAA==

> <PUBCHEM_IUPAC_OPENEYE_NAME>
N-[(2R)-2-ethylhexyl]-1H-indole-3-carboxamide

> <PUBCHEM_IUPAC_CAS_NAME>
N-[(2R)-2-ethylhexyl]-1H-indole-3-carboxamide

> <PUBCHEM_IUPAC_NAME>
N-[(2R)-2-ethylhexyl]-1H-indole-3-carboxamide

> <PUBCHEM_IUPAC_SYSTEMATIC_NAME>
N-[(2R)-2-ethylhexyl]-1H-indole-3-carboxamide

> <PUBCHEM_IUPAC_TRADITIONAL_NAME>
N-[(2R)-2-ethylhexyl]-1H-indole-3-carboxamide

> <PUBCHEM_IUPAC_INCHI>
InChI=1S/C17H24N2O/c1-3-5-8-13(4-2)11-19-17(20)15-12-18-16-10-7-6-9-14(15)16/h6-7,9-10,12-13,18H,3-5,8,11H2,1-2H3,(H,19,20)/t13-/m1/s1

> <PUBCHEM_IUPAC_INCHIKEY>
CKWKRGFFGOLULS-CYBMUJFWSA-N

> <PUBCHEM_XLOGP3>
4.9

> <PUBCHEM_EXACT_MASS>
272.188863

> <PUBCHEM_MOLECULAR_FORMULA>
C17H24N2O

> <PUBCHEM_MOLECULAR_WEIGHT>
272.38526

> <PUBCHEM_OPENEYE_CAN_SMILES>
CCCCC(CC)CNC(=O)C1=CNC2=CC=CC=C21

> <PUBCHEM_OPENEYE_ISO_SMILES>
CCCC[C@@H](CC)CNC(=O)C1=CNC2=CC=CC=C21

> <PUBCHEM_CACTVS_TPSA>
44.9

> <PUBCHEM_MONOISOTOPIC_WEIGHT>
272.188863

> <PUBCHEM_TOTAL_CHARGE>
0

> <PUBCHEM_HEAVY_ATOM_COUNT>
20

> <PUBCHEM_ATOM_DEF_STEREO_COUNT>
1

> <PUBCHEM_ATOM_UDEF_STEREO_COUNT>
0

> <PUBCHEM_BOND_DEF_STEREO_COUNT>
0

> <PUBCHEM_BOND_UDEF_STEREO_COUNT>
0

> <PUBCHEM_ISOTOPIC_ATOM_COUNT>
0

> <PUBCHEM_COMPONENT_COUNT>
1

> <PUBCHEM_CACTVS_TAUTO_COUNT>
5

> <PUBCHEM_COORDINATE_TYPE>
1
5
255

> <PUBCHEM_BONDANNOTATIONS>
13  14  8
13  16  8
14  15  8
14  17  8
15  18  8
17  19  8
18  20  8
19  20  8
3  15  8
3  16  8
4  6  5

$$$$
41008772
  -OEChem-11301217492D

 44 45  0     1  0  0  0  0  0999 V2000
    4.3211    0.4807    0.0000 O   0  0  0  0  0  0  0  0  0  0  0  0
    5.9674   -0.0573    0.0000 N   0  0  0  0  0  0  0  0  0  0  0  0
    4.6783   -2.8236    0.0000 N   0  0  0  0  0  0  0  0  0  0  0  0
    7.2566    1.0994    0.0000 C   0  0  1  0  0  0  0  0  0  0  0  0
    7.5673    2.0499    0.0000 C   0  0  0  0  0  0  0  0  0  0  0  0
    6.2781    0.8932    0.0000 C   0  0  0  0  0  0  0  0  0  0  0  0
    7.9244    0.3551    0.0000 C   0  0  0  0  0  0  0  0  0  0  0  0
    8.5458    2.2561    0.0000 C   0  0  0  0  0  0  0  0  0  0  0  0
    8.8564    3.2066    0.0000 C   0  0  0  0  0  0  0  0  0  0  0  0
    8.9030    0.5613    0.0000 C   0  0  0  0  0  0  0  0  0  0  0  0
    4.9889   -0.2636    0.0000 C   0  0  0  0  0  0  0  0  0  0  0  0
    9.8349    3.4129    0.0000 C   0  0  0  0  0  0  0  0  0  0  0  0
    4.6783   -1.2141    0.0000 C   0  0  0  0  0  0  0  0  0  0  0  0
    3.7320   -1.5188    0.0000 C   0  0  0  0  0  0  0  0  0  0  0  0
    3.7320   -2.5188    0.0000 C   0  0  0  0  0  0  0  0  0  0  0  0
    5.2619   -2.0188    0.0000 C   0  0  0  0  0  0  0  0  0  0  0  0
    2.8660   -1.0188    0.0000 C   0  0  0  0  0  0  0  0  0  0  0  0
    2.8660   -3.0188    0.0000 C   0  0  0  0  0  0  0  0  0  0  0  0
    2.0000   -1.5188    0.0000 C   0  0  0  0  0  0  0  0  0  0  0  0
    2.0000   -2.5188    0.0000 C   0  0  0  0  0  0  0  0  0  0  0  0
    7.0640    0.5101    0.0000 H   0  0  0  0  0  0  0  0  0  0  0  0
    7.5467    2.6696    0.0000 H   0  0  0  0  0  0  0  0  0  0  0  0
    6.9534    2.1373    0.0000 H   0  0  0  0  0  0  0  0  0  0  0  0
    6.2575    1.5128    0.0000 H   0  0  0  0  0  0  0  0  0  0  0  0
    5.6643    0.9805    0.0000 H   0  0  0  0  0  0  0  0  0  0  0  0
    7.3981    0.0275    0.0000 H   0  0  0  0  0  0  0  0  0  0  0  0
    8.1557   -0.2202    0.0000 H   0  0  0  0  0  0  0  0  0  0  0  0
    8.5663    1.6365    0.0000 H   0  0  0  0  0  0  0  0  0  0  0  0
    9.1596    2.1688    0.0000 H   0  0  0  0  0  0  0  0  0  0  0  0
    8.8359    3.8263    0.0000 H   0  0  0  0  0  0  0  0  0  0  0  0
    8.2426    3.2940    0.0000 H   0  0  0  0  0  0  0  0  0  0  0  0
    6.3815   -0.5188    0.0000 H   0  0  0  0  0  0  0  0  0  0  0  0
    9.0308   -0.0454    0.0000 H   0  0  0  0  0  0  0  0  0  0  0  0
    9.5096    0.6892    0.0000 H   0  0  0  0  0  0  0  0  0  0  0  0
    8.7751    1.1680    0.0000 H   0  0  0  0  0  0  0  0  0  0  0  0
    9.9628    2.8062    0.0000 H   0  0  0  0  0  0  0  0  0  0  0  0
   10.4416    3.5407    0.0000 H   0  0  0  0  0  0  0  0  0  0  0  0
    9.7071    4.0196    0.0000 H   0  0  0  0  0  0  0  0  0  0  0  0
    5.8819   -2.0188    0.0000 H   0  0  0  0  0  0  0  0  0  0  0  0
    4.8709   -3.4129    0.0000 H   0  0  0  0  0  0  0  0  0  0  0  0
    2.8660   -0.3988    0.0000 H   0  0  0  0  0  0  0  0  0  0  0  0
    2.8660   -3.6388    0.0000 H   0  0  0  0  0  0  0  0  0  0  0  0
    1.4631   -1.2088    0.0000 H   0  0  0  0  0  0  0  0  0  0  0  0
    1.4631   -2.8288    0.0000 H   0  0  0  0  0  0  0  0  0  0  0  0
  1 11  2  0  0  0  0
  2  6  1  0  0  0  0
  2 11  1  0  0  0  0
  2 32  1  0  0  0  0
  3 15  1  0  0  0  0
  3 16  1  0  0  0  0
  3 40  1  0  0  0  0
  4  5  1  0  0  0  0
  4  6  1  6  0  0  0
  4  7  1  0  0  0  0
  4 21  1  0  0  0  0
  5  8  1  0  0  0  0
  5 22  1  0  0  0  0
  5 23  1  0  0  0  0
  6 24  1  0  0  0  0
  6 25  1  0  0  0  0
  7 10  1  0  0  0  0
  7 26  1  0  0  0  0
  7 27  1  0  0  0  0
  8  9  1  0  0  0  0
  8 28  1  0  0  0  0
  8 29  1  0  0  0  0
  9 12  1  0  0  0  0
  9 30  1  0  0  0  0
  9 31  1  0  0  0  0
 10 33  1  0  0  0  0
 10 34  1  0  0  0  0
 10 35  1  0  0  0  0
 11 13  1  0  0  0  0
 12 36  1  0  0  0  0
 12 37  1  0  0  0  0
 12 38  1  0  0  0  0
 13 14  1  0  0  0  0
 13 16  2  0  0  0  0
 14 15  1  0  0  0  0
 14 17  2  0  0  0  0
 15 18  2  0  0  0  0
 16 39  1  0  0  0  0
 17 19  1  0  0  0  0
 17 41  1  0  0  0  0
 18 20  1  0  0  0  0
 18 42  1  0  0  0  0
 19 20  2  0  0  0  0
 19 43  1  0  0  0  0
 20 44  1  0  0  0  0
M  END
> <PUBCHEM_COMPOUND_CID>
41008772

> <PUBCHEM_COMPOUND_CANONICALIZED>
1

> <PUBCHEM_CACTVS_COMPLEXITY>
305

> <PUBCHEM_CACTVS_HBOND_ACCEPTOR>
1

> <PUBCHEM_CACTVS_HBOND_DONOR>
2

> <PUBCHEM_CACTVS_ROTATABLE_BOND>
7

> <PUBCHEM_CACTVS_SUBSKEYS>
AAADceB7IAAAAAAAAAAAAAAAAAAAAWAAAAAwAAAAAAAAAFgB8AAAHgAQAAAADQjBngQ+wPLJkACoAzV3VACCgCA1AiAI2aE4ZNgIIPrA1ZGEIYhglgDIyccciMCOgAAAAAACAAAAAAAAAAQAAAAAAAAAAA==

> <PUBCHEM_IUPAC_OPENEYE_NAME>
N-[(2S)-2-ethylhexyl]-1H-indole-3-carboxamide

> <PUBCHEM_IUPAC_CAS_NAME>
N-[(2S)-2-ethylhexyl]-1H-indole-3-carboxamide

> <PUBCHEM_IUPAC_NAME>
N-[(2S)-2-ethylhexyl]-1H-indole-3-carboxamide

> <PUBCHEM_IUPAC_SYSTEMATIC_NAME>
N-[(2S)-2-ethylhexyl]-1H-indole-3-carboxamide

> <PUBCHEM_IUPAC_TRADITIONAL_NAME>
N-[(2S)-2-ethylhexyl]-1H-indole-3-carboxamide

> <PUBCHEM_IUPAC_INCHI>
InChI=1S/C17H24N2O/c1-3-5-8-13(4-2)11-19-17(20)15-12-18-16-10-7-6-9-14(15)16/h6-7,9-10,12-13,18H,3-5,8,11H2,1-2H3,(H,19,20)/t13-/m0/s1

> <PUBCHEM_IUPAC_INCHIKEY>
CKWKRGFFGOLULS-ZDUSSCGKSA-N

> <PUBCHEM_XLOGP3>
4.9

> <PUBCHEM_EXACT_MASS>
272.188863

> <PUBCHEM_MOLECULAR_FORMULA>
C17H24N2O

> <PUBCHEM_MOLECULAR_WEIGHT>
272.38526

> <PUBCHEM_OPENEYE_CAN_SMILES>
CCCCC(CC)CNC(=O)C1=CNC2=CC=CC=C21

> <PUBCHEM_OPENEYE_ISO_SMILES>
CCCC[C@H](CC)CNC(=O)C1=CNC2=CC=CC=C21

> <PUBCHEM_CACTVS_TPSA>
44.9

> <PUBCHEM_MONOISOTOPIC_WEIGHT>
272.188863

> <PUBCHEM_TOTAL_CHARGE>
0

> <PUBCHEM_HEAVY_ATOM_COUNT>
20

> <PUBCHEM_ATOM_DEF_STEREO_COUNT>
1

> <PUBCHEM_ATOM_UDEF_STEREO_COUNT>
0

> <PUBCHEM_BOND_DEF_STEREO_COUNT>
0

> <PUBCHEM_BOND_UDEF_STEREO_COUNT>
0

> <PUBCHEM_ISOTOPIC_ATOM_COUNT>
0

> <PUBCHEM_COMPONENT_COUNT>
1

> <PUBCHEM_CACTVS_TAUTO_COUNT>
5

> <PUBCHEM_COORDINATE_TYPE>
1
5
255

> <PUBCHEM_BONDANNOTATIONS>
13  14  8
13  16  8
14  15  8
14  17  8
15  18  8
17  19  8
18  20  8
19  20  8
3  15  8
3  16  8
4  6  6

$$$$
41010269
  -OEChem-11301217492D

 39 41  0     0  0  0  0  0  0999 V2000
    6.7619    2.2180    0.0000 O   0  0  0  0  0  0  0  0  0  0  0  0
    7.7619   -1.2461    0.0000 N   0  3  0  0  0  0  0  0  0  0  0  0
    6.7619    0.4860    0.0000 N   0  0  0  0  0  0  0  0  0  0  0  0
    4.6783    2.1567    0.0000 N   0  0  0  0  0  0  0  0  0  0  0  0
    8.2619   -0.3800    0.0000 C   0  0  0  0  0  0  0  0  0  0  0  0
    6.7619   -1.2461    0.0000 C   0  0  0  0  0  0  0  0  0  0  0  0
    7.7619    0.4860    0.0000 C   0  0  0  0  0  0  0  0  0  0  0  0
    6.2619   -0.3800    0.0000 C   0  0  0  0  0  0  0  0  0  0  0  0
    8.6279   -1.7461    0.0000 C   0  0  0  0  0  0  0  0  0  0  0  0
    6.2619    1.3520    0.0000 C   0  0  0  0  0  0  0  0  0  0  0  0
    8.6279   -2.7461    0.0000 C   0  0  0  0  0  0  0  0  0  0  0  0
    5.2619    1.3520    0.0000 C   0  0  0  0  0  0  0  0  0  0  0  0
    4.6783    0.5473    0.0000 C   0  0  0  0  0  0  0  0  0  0  0  0
    3.7320    1.8520    0.0000 C   0  0  0  0  0  0  0  0  0  0  0  0
    3.7320    0.8520    0.0000 C   0  0  0  0  0  0  0  0  0  0  0  0
    2.8660    2.3520    0.0000 C   0  0  0  0  0  0  0  0  0  0  0  0
    2.8660    0.3520    0.0000 C   0  0  0  0  0  0  0  0  0  0  0  0
    2.0000    1.8520    0.0000 C   0  0  0  0  0  0  0  0  0  0  0  0
    2.0000    0.8520    0.0000 C   0  0  0  0  0  0  0  0  0  0  0  0
    7.7619   -1.8661    0.0000 H   0  0  0  0  0  0  0  0  0  0  0  0
    8.7368   -0.7786    0.0000 H   0  0  0  0  0  0  0  0  0  0  0  0
    8.7368    0.0185    0.0000 H   0  0  0  0  0  0  0  0  0  0  0  0
    6.1793   -1.4581    0.0000 H   0  0  0  0  0  0  0  0  0  0  0  0
    6.8695   -1.8566    0.0000 H   0  0  0  0  0  0  0  0  0  0  0  0
    8.3445    0.6980    0.0000 H   0  0  0  0  0  0  0  0  0  0  0  0
    7.6542    1.0966    0.0000 H   0  0  0  0  0  0  0  0  0  0  0  0
    5.7869    0.0185    0.0000 H   0  0  0  0  0  0  0  0  0  0  0  0
    5.7869   -0.7786    0.0000 H   0  0  0  0  0  0  0  0  0  0  0  0
    9.2385   -1.8537    0.0000 H   0  0  0  0  0  0  0  0  0  0  0  0
    8.8400   -1.1635    0.0000 H   0  0  0  0  0  0  0  0  0  0  0  0
    8.0079   -2.7461    0.0000 H   0  0  0  0  0  0  0  0  0  0  0  0
    8.6279   -3.3661    0.0000 H   0  0  0  0  0  0  0  0  0  0  0  0
    9.2479   -2.7461    0.0000 H   0  0  0  0  0  0  0  0  0  0  0  0
    4.8709    2.7461    0.0000 H   0  0  0  0  0  0  0  0  0  0  0  0
    4.8709   -0.0420    0.0000 H   0  0  0  0  0  0  0  0  0  0  0  0
    2.8660    2.9720    0.0000 H   0  0  0  0  0  0  0  0  0  0  0  0
    2.8660   -0.2680    0.0000 H   0  0  0  0  0  0  0  0  0  0  0  0
    1.4631    2.1620    0.0000 H   0  0  0  0  0  0  0  0  0  0  0  0
    1.4631    0.5420    0.0000 H   0  0  0  0  0  0  0  0  0  0  0  0
  1 10  2  0  0  0  0
  2  5  1  0  0  0  0
  2  6  1  0  0  0  0
  2  9  1  0  0  0  0
  2 20  1  0  0  0  0
  3  7  1  0  0  0  0
  3  8  1  0  0  0  0
  3 10  1  0  0  0  0
  4 12  1  0  0  0  0
  4 14  1  0  0  0  0
  4 34  1  0  0  0  0
  5  7  1  0  0  0  0
  5 21  1  0  0  0  0
  5 22  1  0  0  0  0
  6  8  1  0  0  0  0
  6 23  1  0  0  0  0
  6 24  1  0  0  0  0
  7 25  1  0  0  0  0
  7 26  1  0  0  0  0
  8 27  1  0  0  0  0
  8 28  1  0  0  0  0
  9 11  1  0  0  0  0
  9 29  1  0  0  0  0
  9 30  1  0  0  0  0
 10 12  1  0  0  0  0
 11 31  1  0  0  0  0
 11 32  1  0  0  0  0
 11 33  1  0  0  0  0
 12 13  2  0  0  0  0
 13 15  1  0  0  0  0
 13 35  1  0  0  0  0
 14 15  1  0  0  0  0
 14 16  2  0  0  0  0
 15 17  2  0  0  0  0
 16 18  1  0  0  0  0
 16 36  1  0  0  0  0
 17 19  1  0  0  0  0
 17 37  1  0  0  0  0
 18 19  2  0  0  0  0
 18 38  1  0  0  0  0
 19 39  1  0  0  0  0
M  CHG  1   2   1
M  END
> <PUBCHEM_COMPOUND_CID>
41010269

> <PUBCHEM_COMPOUND_CANONICALIZED>
1

> <PUBCHEM_CACTVS_COMPLEXITY>
325

> <PUBCHEM_CACTVS_HBOND_ACCEPTOR>
1

> <PUBCHEM_CACTVS_HBOND_DONOR>
2

> <PUBCHEM_CACTVS_ROTATABLE_BOND>
2

> <PUBCHEM_CACTVS_SUBSKEYS>
AAADceBzIAAAAAAAAAAAAAAAAAAAAWAAAAA8QAAAAAAAAFgB8AAAHgAQAAAADAjBngQywPPJkACoAyVyVACCgCAnAiAImaG4ZNgIYPLAlbGUIQhglgDIyYcYiYCeAAAAAAACAAAAAAAAAAQAAAAAAAAAAA==

> <PUBCHEM_IUPAC_OPENEYE_NAME>
(4-ethylpiperazin-4-ium-1-yl)-(1H-indol-2-yl)methanone

> <PUBCHEM_IUPAC_CAS_NAME>
(4-ethyl-1-piperazin-4-iumyl)-(1H-indol-2-yl)methanone

> <PUBCHEM_IUPAC_NAME>
(4-ethylpiperazin-4-ium-1-yl)-(1H-indol-2-yl)methanone

> <PUBCHEM_IUPAC_SYSTEMATIC_NAME>
(4-ethylpiperazin-4-ium-1-yl)-(1H-indol-2-yl)methanone

> <PUBCHEM_IUPAC_TRADITIONAL_NAME>
(4-ethylpiperazin-4-ium-1-yl)-(1H-indol-2-yl)methanone

> <PUBCHEM_IUPAC_INCHI>
InChI=1S/C15H19N3O/c1-2-17-7-9-18(10-8-17)15(19)14-11-12-5-3-4-6-13(12)16-14/h3-6,11,16H,2,7-10H2,1H3/p+1

> <PUBCHEM_IUPAC_INCHIKEY>
PMEYJXDZLFOKCP-UHFFFAOYSA-O

> <PUBCHEM_XLOGP3>
2.4

> <PUBCHEM_EXACT_MASS>
258.160637

> <PUBCHEM_MOLECULAR_FORMULA>
C15H20N3O+

> <PUBCHEM_MOLECULAR_WEIGHT>
258.3388

> <PUBCHEM_OPENEYE_CAN_SMILES>
CC[NH+]1CCN(CC1)C(=O)C2=CC3=CC=CC=C3N2

> <PUBCHEM_OPENEYE_ISO_SMILES>
CC[NH+]1CCN(CC1)C(=O)C2=CC3=CC=CC=C3N2

> <PUBCHEM_CACTVS_TPSA>
40.5

> <PUBCHEM_MONOISOTOPIC_WEIGHT>
258.160637

> <PUBCHEM_TOTAL_CHARGE>
1

> <PUBCHEM_HEAVY_ATOM_COUNT>
19

> <PUBCHEM_ATOM_DEF_STEREO_COUNT>
0

> <PUBCHEM_ATOM_UDEF_STEREO_COUNT>
0

> <PUBCHEM_BOND_DEF_STEREO_COUNT>
0

> <PUBCHEM_BOND_UDEF_STEREO_COUNT>
0

> <PUBCHEM_ISOTOPIC_ATOM_COUNT>
0

> <PUBCHEM_COMPONENT_COUNT>
1

> <PUBCHEM_CACTVS_TAUTO_COUNT>
6

> <PUBCHEM_COORDINATE_TYPE>
1
5
255

> <PUBCHEM_BONDANNOTATIONS>
12  13  8
13  15  8
14  15  8
14  16  8
15  17  8
16  18  8
17  19  8
18  19  8
4  12  8
4  14  8

$$$$
41013937
  -OEChem-11301217492D

 37 38  0     1  0  0  0  0  0999 V2000
    4.5981   -1.0000    0.0000 O   0  0  0  0  0  0  0  0  0  0  0  0
    3.7320    0.5000    0.0000 N   0  0  0  0  0  0  0  0  0  0  0  0
    2.8660   -1.0000    0.0000 N   0  0  0  0  0  0  0  0  0  0  0  0
    4.5981    2.0000    0.0000 C   0  0  1  0  0  0  0  0  0  0  0  0
    4.5981    1.0000    0.0000 C   0  0  0  0  0  0  0  0  0  0  0  0
    5.4641    2.5000    0.0000 C   0  0  0  0  0  0  0  0  0  0  0  0
    3.7320    2.5000    0.0000 C   0  0  0  0  0  0  0  0  0  0  0  0
    6.3301    2.0000    0.0000 C   0  0  0  0  0  0  0  0  0  0  0  0
    5.4641    3.5000    0.0000 C   0  0  0  0  0  0  0  0  0  0  0  0
    7.1962    2.5000    0.0000 C   0  0  0  0  0  0  0  0  0  0  0  0
    6.3301    4.0000    0.0000 C   0  0  0  0  0  0  0  0  0  0  0  0
    3.7320   -0.5000    0.0000 C   0  0  0  0  0  0  0  0  0  0  0  0
    7.1962    3.5000    0.0000 C   0  0  0  0  0  0  0  0  0  0  0  0
    2.8660   -2.0000    0.0000 C   0  0  0  0  0  0  0  0  0  0  0  0
    2.0000   -2.5000    0.0000 C   0  0  0  0  0  0  0  0  0  0  0  0
    3.7320   -2.5000    0.0000 C   0  0  0  0  0  0  0  0  0  0  0  0
    2.0000   -3.5000    0.0000 C   0  0  0  0  0  0  0  0  0  0  0  0
    3.7320   -3.5000    0.0000 C   0  0  0  0  0  0  0  0  0  0  0  0
    2.8660   -4.0000    0.0000 C   0  0  0  0  0  0  0  0  0  0  0  0
    4.5981    2.6200    0.0000 H   0  0  0  0  0  0  0  0  0  0  0  0
    4.8101    0.4174    0.0000 H   0  0  0  0  0  0  0  0  0  0  0  0
    5.2087    1.1077    0.0000 H   0  0  0  0  0  0  0  0  0  0  0  0
    4.0420    3.0369    0.0000 H   0  0  0  0  0  0  0  0  0  0  0  0
    3.1951    2.8100    0.0000 H   0  0  0  0  0  0  0  0  0  0  0  0
    3.4220    1.9631    0.0000 H   0  0  0  0  0  0  0  0  0  0  0  0
    3.1951    0.8100    0.0000 H   0  0  0  0  0  0  0  0  0  0  0  0
    6.3301    1.3800    0.0000 H   0  0  0  0  0  0  0  0  0  0  0  0
    4.9272    3.8100    0.0000 H   0  0  0  0  0  0  0  0  0  0  0  0
    7.7331    2.1900    0.0000 H   0  0  0  0  0  0  0  0  0  0  0  0
    6.3301    4.6200    0.0000 H   0  0  0  0  0  0  0  0  0  0  0  0
    7.7331    3.8100    0.0000 H   0  0  0  0  0  0  0  0  0  0  0  0
    2.3291   -0.6900    0.0000 H   0  0  0  0  0  0  0  0  0  0  0  0
    1.4631   -2.1900    0.0000 H   0  0  0  0  0  0  0  0  0  0  0  0
    4.2690   -2.1900    0.0000 H   0  0  0  0  0  0  0  0  0  0  0  0
    1.4631   -3.8100    0.0000 H   0  0  0  0  0  0  0  0  0  0  0  0
    4.2690   -3.8100    0.0000 H   0  0  0  0  0  0  0  0  0  0  0  0
    2.8660   -4.6200    0.0000 H   0  0  0  0  0  0  0  0  0  0  0  0
  1 12  2  0  0  0  0
  2  5  1  0  0  0  0
  2 12  1  0  0  0  0
  2 26  1  0  0  0  0
  3 12  1  0  0  0  0
  3 14  1  0  0  0  0
  3 32  1  0  0  0  0
  4  5  1  0  0  0  0
  4  6  1  0  0  0  0
  4  7  1  6  0  0  0
  4 20  1  0  0  0  0
  5 21  1  0  0  0  0
  5 22  1  0  0  0  0
  6  8  2  0  0  0  0
  6  9  1  0  0  0  0
  7 23  1  0  0  0  0
  7 24  1  0  0  0  0
  7 25  1  0  0  0  0
  8 10  1  0  0  0  0
  8 27  1  0  0  0  0
  9 11  2  0  0  0  0
  9 28  1  0  0  0  0
 10 13  2  0  0  0  0
 10 29  1  0  0  0  0
 11 13  1  0  0  0  0
 11 30  1  0  0  0  0
 13 31  1  0  0  0  0
 14 15  2  0  0  0  0
 14 16  1  0  0  0  0
 15 17  1  0  0  0  0
 15 33  1  0  0  0  0
 16 18  2  0  0  0  0
 16 34  1  0  0  0  0
 17 19  2  0  0  0  0
 17 35  1  0  0  0  0
 18 19  1  0  0  0  0
 18 36  1  0  0  0  0
 19 37  1  0  0  0  0
M  END
> <PUBCHEM_COMPOUND_CID>
41013937

> <PUBCHEM_COMPOUND_CANONICALIZED>
1

> <PUBCHEM_CACTVS_COMPLEXITY>
268

> <PUBCHEM_CACTVS_HBOND_ACCEPTOR>
1

> <PUBCHEM_CACTVS_HBOND_DONOR>
2

> <PUBCHEM_CACTVS_ROTATABLE_BOND>
4

> <PUBCHEM_CACTVS_SUBSKEYS>
AAADceB7IAAAAAAAAAAAAAAAAAAAAAAAAAAwYAAAAAAAAAABQAAAHgAQAAAADQjBGAQzwILAAACIAiRCUACCAAAhAgAIiIAIZIiIICLAkZGEIAholgJIyCcQgMAOgAAAAAAAAAAAAAAAAAAAAAAAAAAAAA==

> <PUBCHEM_IUPAC_OPENEYE_NAME>
1-phenyl-3-[(2R)-2-phenylpropyl]urea

> <PUBCHEM_IUPAC_CAS_NAME>
1-phenyl-3-[(2R)-2-phenylpropyl]urea

> <PUBCHEM_IUPAC_NAME>
1-phenyl-3-[(2R)-2-phenylpropyl]urea

> <PUBCHEM_IUPAC_SYSTEMATIC_NAME>
1-phenyl-3-[(2R)-2-phenylpropyl]urea

> <PUBCHEM_IUPAC_TRADITIONAL_NAME>
1-phenyl-3-[(2R)-2-phenylpropyl]urea

> <PUBCHEM_IUPAC_INCHI>
InChI=1S/C16H18N2O/c1-13(14-8-4-2-5-9-14)12-17-16(19)18-15-10-6-3-7-11-15/h2-11,13H,12H2,1H3,(H2,17,18,19)/t13-/m0/s1

> <PUBCHEM_IUPAC_INCHIKEY>
QLZMAEIJBWLQRN-ZDUSSCGKSA-N

> <PUBCHEM_XLOGP3>
3.6

> <PUBCHEM_EXACT_MASS>
254.141913

> <PUBCHEM_MOLECULAR_FORMULA>
C16H18N2O

> <PUBCHEM_MOLECULAR_WEIGHT>
254.32692

> <PUBCHEM_OPENEYE_CAN_SMILES>
CC(CNC(=O)NC1=CC=CC=C1)C2=CC=CC=C2

> <PUBCHEM_OPENEYE_ISO_SMILES>
C[C@@H](CNC(=O)NC1=CC=CC=C1)C2=CC=CC=C2

> <PUBCHEM_CACTVS_TPSA>
41.1

> <PUBCHEM_MONOISOTOPIC_WEIGHT>
254.141913

> <PUBCHEM_TOTAL_CHARGE>
0

> <PUBCHEM_HEAVY_ATOM_COUNT>
19

> <PUBCHEM_ATOM_DEF_STEREO_COUNT>
1

> <PUBCHEM_ATOM_UDEF_STEREO_COUNT>
0

> <PUBCHEM_BOND_DEF_STEREO_COUNT>
0

> <PUBCHEM_BOND_UDEF_STEREO_COUNT>
0

> <PUBCHEM_ISOTOPIC_ATOM_COUNT>
0

> <PUBCHEM_COMPONENT_COUNT>
1

> <PUBCHEM_CACTVS_TAUTO_COUNT>
3

> <PUBCHEM_COORDINATE_TYPE>
1
5
255

> <PUBCHEM_BONDANNOTATIONS>
10  13  8
11  13  8
14  15  8
14  16  8
15  17  8
16  18  8
17  19  8
18  19  8
4  7  6
6  8  8
6  9  8
8  10  8
9  11  8

$$$$
41013939
  -OEChem-11301217492D

 37 38  0     1  0  0  0  0  0999 V2000
    4.5981   -1.0000    0.0000 O   0  0  0  0  0  0  0  0  0  0  0  0
    3.7320    0.5000    0.0000 N   0  0  0  0  0  0  0  0  0  0  0  0
    2.8660   -1.0000    0.0000 N   0  0  0  0  0  0  0  0  0  0  0  0
    4.5981    2.0000    0.0000 C   0  0  2  0  0  0  0  0  0  0  0  0
    4.5981    1.0000    0.0000 C   0  0  0  0  0  0  0  0  0  0  0  0
    5.4641    2.5000    0.0000 C   0  0  0  0  0  0  0  0  0  0  0  0
    3.7320    2.5000    0.0000 C   0  0  0  0  0  0  0  0  0  0  0  0
    6.3301    2.0000    0.0000 C   0  0  0  0  0  0  0  0  0  0  0  0
    5.4641    3.5000    0.0000 C   0  0  0  0  0  0  0  0  0  0  0  0
    7.1962    2.5000    0.0000 C   0  0  0  0  0  0  0  0  0  0  0  0
    6.3301    4.0000    0.0000 C   0  0  0  0  0  0  0  0  0  0  0  0
    3.7320   -0.5000    0.0000 C   0  0  0  0  0  0  0  0  0  0  0  0
    7.1962    3.5000    0.0000 C   0  0  0  0  0  0  0  0  0  0  0  0
    2.8660   -2.0000    0.0000 C   0  0  0  0  0  0  0  0  0  0  0  0
    2.0000   -2.5000    0.0000 C   0  0  0  0  0  0  0  0  0  0  0  0
    3.7320   -2.5000    0.0000 C   0  0  0  0  0  0  0  0  0  0  0  0
    2.0000   -3.5000    0.0000 C   0  0  0  0  0  0  0  0  0  0  0  0
    3.7320   -3.5000    0.0000 C   0  0  0  0  0  0  0  0  0  0  0  0
    2.8660   -4.0000    0.0000 C   0  0  0  0  0  0  0  0  0  0  0  0
    4.5981    2.6200    0.0000 H   0  0  0  0  0  0  0  0  0  0  0  0
    4.8101    0.4174    0.0000 H   0  0  0  0  0  0  0  0  0  0  0  0
    5.2087    1.1077    0.0000 H   0  0  0  0  0  0  0  0  0  0  0  0
    4.0420    3.0369    0.0000 H   0  0  0  0  0  0  0  0  0  0  0  0
    3.1951    2.8100    0.0000 H   0  0  0  0  0  0  0  0  0  0  0  0
    3.4220    1.9631    0.0000 H   0  0  0  0  0  0  0  0  0  0  0  0
    3.1951    0.8100    0.0000 H   0  0  0  0  0  0  0  0  0  0  0  0
    6.3301    1.3800    0.0000 H   0  0  0  0  0  0  0  0  0  0  0  0
    4.9272    3.8100    0.0000 H   0  0  0  0  0  0  0  0  0  0  0  0
    7.7331    2.1900    0.0000 H   0  0  0  0  0  0  0  0  0  0  0  0
    6.3301    4.6200    0.0000 H   0  0  0  0  0  0  0  0  0  0  0  0
    7.7331    3.8100    0.0000 H   0  0  0  0  0  0  0  0  0  0  0  0
    2.3291   -0.6900    0.0000 H   0  0  0  0  0  0  0  0  0  0  0  0
    1.4631   -2.1900    0.0000 H   0  0  0  0  0  0  0  0  0  0  0  0
    4.2690   -2.1900    0.0000 H   0  0  0  0  0  0  0  0  0  0  0  0
    1.4631   -3.8100    0.0000 H   0  0  0  0  0  0  0  0  0  0  0  0
    4.2690   -3.8100    0.0000 H   0  0  0  0  0  0  0  0  0  0  0  0
    2.8660   -4.6200    0.0000 H   0  0  0  0  0  0  0  0  0  0  0  0
  1 12  2  0  0  0  0
  2  5  1  0  0  0  0
  2 12  1  0  0  0  0
  2 26  1  0  0  0  0
  3 12  1  0  0  0  0
  3 14  1  0  0  0  0
  3 32  1  0  0  0  0
  4  5  1  0  0  0  0
  4  6  1  0  0  0  0
  4  7  1  1  0  0  0
  4 20  1  0  0  0  0
  5 21  1  0  0  0  0
  5 22  1  0  0  0  0
  6  8  2  0  0  0  0
  6  9  1  0  0  0  0
  7 23  1  0  0  0  0
  7 24  1  0  0  0  0
  7 25  1  0  0  0  0
  8 10  1  0  0  0  0
  8 27  1  0  0  0  0
  9 11  2  0  0  0  0
  9 28  1  0  0  0  0
 10 13  2  0  0  0  0
 10 29  1  0  0  0  0
 11 13  1  0  0  0  0
 11 30  1  0  0  0  0
 13 31  1  0  0  0  0
 14 15  2  0  0  0  0
 14 16  1  0  0  0  0
 15 17  1  0  0  0  0
 15 33  1  0  0  0  0
 16 18  2  0  0  0  0
 16 34  1  0  0  0  0
 17 19  2  0  0  0  0
 17 35  1  0  0  0  0
 18 19  1  0  0  0  0
 18 36  1  0  0  0  0
 19 37  1  0  0  0  0
M  END
> <PUBCHEM_COMPOUND_CID>
41013939

> <PUBCHEM_COMPOUND_CANONICALIZED>
1

> <PUBCHEM_CACTVS_COMPLEXITY>
268

> <PUBCHEM_CACTVS_HBOND_ACCEPTOR>
1

> <PUBCHEM_CACTVS_HBOND_DONOR>
2

> <PUBCHEM_CACTVS_ROTATABLE_BOND>
4

> <PUBCHEM_CACTVS_SUBSKEYS>
AAADceB7IAAAAAAAAAAAAAAAAAAAAAAAAAAwYAAAAAAAAAABQAAAHgAQAAAADQjBGAQzwILAAACIAiRCUACCAAAhAgAIiIAIZIiIICLAkZGEIAholgJIyCcQgMAOgAAAAAAAAAAAAAAAAAAAAAAAAAAAAA==

> <PUBCHEM_IUPAC_OPENEYE_NAME>
1-phenyl-3-[(2S)-2-phenylpropyl]urea

> <PUBCHEM_IUPAC_CAS_NAME>
1-phenyl-3-[(2S)-2-phenylpropyl]urea

> <PUBCHEM_IUPAC_NAME>
1-phenyl-3-[(2S)-2-phenylpropyl]urea

> <PUBCHEM_IUPAC_SYSTEMATIC_NAME>
1-phenyl-3-[(2S)-2-phenylpropyl]urea

> <PUBCHEM_IUPAC_TRADITIONAL_NAME>
1-phenyl-3-[(2S)-2-phenylpropyl]urea

> <PUBCHEM_IUPAC_INCHI>
InChI=1S/C16H18N2O/c1-13(14-8-4-2-5-9-14)12-17-16(19)18-15-10-6-3-7-11-15/h2-11,13H,12H2,1H3,(H2,17,18,19)/t13-/m1/s1

> <PUBCHEM_IUPAC_INCHIKEY>
QLZMAEIJBWLQRN-CYBMUJFWSA-N

> <PUBCHEM_XLOGP3>
3.6

> <PUBCHEM_EXACT_MASS>
254.141913

> <PUBCHEM_MOLECULAR_FORMULA>
C16H18N2O

> <PUBCHEM_MOLECULAR_WEIGHT>
254.32692

> <PUBCHEM_OPENEYE_CAN_SMILES>
CC(CNC(=O)NC1=CC=CC=C1)C2=CC=CC=C2

> <PUBCHEM_OPENEYE_ISO_SMILES>
C[C@H](CNC(=O)NC1=CC=CC=C1)C2=CC=CC=C2

> <PUBCHEM_CACTVS_TPSA>
41.1

> <PUBCHEM_MONOISOTOPIC_WEIGHT>
254.141913

> <PUBCHEM_TOTAL_CHARGE>
0

> <PUBCHEM_HEAVY_ATOM_COUNT>
19

> <PUBCHEM_ATOM_DEF_STEREO_COUNT>
1

> <PUBCHEM_ATOM_UDEF_STEREO_COUNT>
0

> <PUBCHEM_BOND_DEF_STEREO_COUNT>
0

> <PUBCHEM_BOND_UDEF_STEREO_COUNT>
0

> <PUBCHEM_ISOTOPIC_ATOM_COUNT>
0

> <PUBCHEM_COMPONENT_COUNT>
1

> <PUBCHEM_CACTVS_TAUTO_COUNT>
3

> <PUBCHEM_COORDINATE_TYPE>
1
5
255

> <PUBCHEM_BONDANNOTATIONS>
10  13  8
11  13  8
14  15  8
14  16  8
15  17  8
16  18  8
17  19  8
18  19  8
4  7  5
6  8  8
6  9  8
8  10  8
9  11  8

$$$$
