41642541
  -OEChem-12041212002D

 42 44  0     0  0  0  0  0  0999 V2000
    9.7884    4.7355    0.0000 Cl  0  0  0  0  0  0  0  0  0  0  0  0
    7.9245   -0.9676    0.0000 O   0  0  0  0  0  0  0  0  0  0  0  0
    4.6783   -4.1462    0.0000 N   0  0  0  0  0  0  0  0  0  0  0  0
    6.2781   -0.4295    0.0000 N   0  0  0  0  0  0  0  0  0  0  0  0
    4.6783   -2.5368    0.0000 C   0  0  0  0  0  0  0  0  0  0  0  0
    4.9889   -1.5862    0.0000 C   0  0  0  0  0  0  0  0  0  0  0  0
    3.7321   -2.8415    0.0000 C   0  0  0  0  0  0  0  0  0  0  0  0
    5.9674   -1.3800    0.0000 C   0  0  0  0  0  0  0  0  0  0  0  0
    3.7321   -3.8415    0.0000 C   0  0  0  0  0  0  0  0  0  0  0  0
    5.2619   -3.3415    0.0000 C   0  0  0  0  0  0  0  0  0  0  0  0
    7.5673    0.7272    0.0000 C   0  0  0  0  0  0  0  0  0  0  0  0
    8.5458    0.9335    0.0000 C   0  0  0  0  0  0  0  0  0  0  0  0
    2.8660   -2.3415    0.0000 C   0  0  0  0  0  0  0  0  0  0  0  0
    7.2566   -0.2233    0.0000 C   0  0  0  0  0  0  0  0  0  0  0  0
    2.8660   -4.3415    0.0000 C   0  0  0  0  0  0  0  0  0  0  0  0
    8.8564    1.8840    0.0000 C   0  0  0  0  0  0  0  0  0  0  0  0
    2.0000   -2.8415    0.0000 C   0  0  0  0  0  0  0  0  0  0  0  0
    2.0000   -3.8415    0.0000 C   0  0  0  0  0  0  0  0  0  0  0  0
    9.8349    2.0902    0.0000 C   0  0  0  0  0  0  0  0  0  0  0  0
    8.1886    2.6283    0.0000 C   0  0  0  0  0  0  0  0  0  0  0  0
   10.1456    3.0407    0.0000 C   0  0  0  0  0  0  0  0  0  0  0  0
    8.4993    3.5788    0.0000 C   0  0  0  0  0  0  0  0  0  0  0  0
    9.4778    3.7850    0.0000 C   0  0  0  0  0  0  0  0  0  0  0  0
    4.9684   -0.9666    0.0000 H   0  0  0  0  0  0  0  0  0  0  0  0
    4.3751   -1.4989    0.0000 H   0  0  0  0  0  0  0  0  0  0  0  0
    5.9880   -1.9997    0.0000 H   0  0  0  0  0  0  0  0  0  0  0  0
    6.5813   -1.4674    0.0000 H   0  0  0  0  0  0  0  0  0  0  0  0
    5.8819   -3.3415    0.0000 H   0  0  0  0  0  0  0  0  0  0  0  0
    4.8709   -4.7355    0.0000 H   0  0  0  0  0  0  0  0  0  0  0  0
    7.5467    1.3469    0.0000 H   0  0  0  0  0  0  0  0  0  0  0  0
    6.9535    0.8146    0.0000 H   0  0  0  0  0  0  0  0  0  0  0  0
    5.8640    0.0320    0.0000 H   0  0  0  0  0  0  0  0  0  0  0  0
    8.5663    0.3138    0.0000 H   0  0  0  0  0  0  0  0  0  0  0  0
    9.1596    0.8461    0.0000 H   0  0  0  0  0  0  0  0  0  0  0  0
    2.8660   -1.7215    0.0000 H   0  0  0  0  0  0  0  0  0  0  0  0
    2.8660   -4.9615    0.0000 H   0  0  0  0  0  0  0  0  0  0  0  0
    1.4631   -2.5315    0.0000 H   0  0  0  0  0  0  0  0  0  0  0  0
    1.4631   -4.1515    0.0000 H   0  0  0  0  0  0  0  0  0  0  0  0
   10.2490    1.6287    0.0000 H   0  0  0  0  0  0  0  0  0  0  0  0
    7.5819    2.5004    0.0000 H   0  0  0  0  0  0  0  0  0  0  0  0
   10.7523    3.1686    0.0000 H   0  0  0  0  0  0  0  0  0  0  0  0
    8.0852    4.0403    0.0000 H   0  0  0  0  0  0  0  0  0  0  0  0
  1 23  1  0  0  0  0
  2 14  2  0  0  0  0
  3  9  1  0  0  0  0
  3 10  1  0  0  0  0
  3 29  1  0  0  0  0
  4  8  1  0  0  0  0
  4 14  1  0  0  0  0
  4 32  1  0  0  0  0
  5  6  1  0  0  0  0
  5  7  1  0  0  0  0
  5 10  2  0  0  0  0
  6  8  1  0  0  0  0
  6 24  1  0  0  0  0
  6 25  1  0  0  0  0
  7  9  1  0  0  0  0
  7 13  2  0  0  0  0
  8 26  1  0  0  0  0
  8 27  1  0  0  0  0
  9 15  2  0  0  0  0
 10 28  1  0  0  0  0
 11 12  1  0  0  0  0
 11 14  1  0  0  0  0
 11 30  1  0  0  0  0
 11 31  1  0  0  0  0
 12 16  1  0  0  0  0
 12 33  1  0  0  0  0
 12 34  1  0  0  0  0
 13 17  1  0  0  0  0
 13 35  1  0  0  0  0
 15 18  1  0  0  0  0
 15 36  1  0  0  0  0
 16 19  2  0  0  0  0
 16 20  1  0  0  0  0
 17 18  2  0  0  0  0
 17 37  1  0  0  0  0
 18 38  1  0  0  0  0
 19 21  1  0  0  0  0
 19 39  1  0  0  0  0
 20 22  2  0  0  0  0
 20 40  1  0  0  0  0
 21 23  2  0  0  0  0
 21 41  1  0  0  0  0
 22 23  1  0  0  0  0
 22 42  1  0  0  0  0
M  END
> <PUBCHEM_COMPOUND_CID>
41642541

> <PUBCHEM_COMPOUND_CANONICALIZED>
1

> <PUBCHEM_CACTVS_COMPLEXITY>
382

> <PUBCHEM_CACTVS_HBOND_ACCEPTOR>
1

> <PUBCHEM_CACTVS_HBOND_DONOR>
2

> <PUBCHEM_CACTVS_ROTATABLE_BOND>
6

> <PUBCHEM_CACTVS_SUBSKEYS>
AAADceB7IAAEAAAAAAAAAAAAAAAAAWAAAAAwYAAAAAAAAFgB9AAAHgIQAAAADArBniQ8wPLJkACoAzV3VACCgCAxByAI2aE4ZpgIIPLBk5GEIAhglgDIyAcYiMCOhAAAAAACAAAIAAAAAAQAAAAAAAAAAA==

> <PUBCHEM_IUPAC_OPENEYE_NAME>
3-(4-chlorophenyl)-N-[2-(1H-indol-3-yl)ethyl]propanamide

> <PUBCHEM_IUPAC_CAS_NAME>
3-(4-chlorophenyl)-N-[2-(1H-indol-3-yl)ethyl]propanamide

> <PUBCHEM_IUPAC_NAME>
3-(4-chlorophenyl)-N-[2-(1H-indol-3-yl)ethyl]propanamide

> <PUBCHEM_IUPAC_SYSTEMATIC_NAME>
3-(4-chlorophenyl)-N-[2-(1H-indol-3-yl)ethyl]propanamide

> <PUBCHEM_IUPAC_TRADITIONAL_NAME>
3-(4-chlorophenyl)-N-[2-(1H-indol-3-yl)ethyl]propionamide

> <PUBCHEM_IUPAC_INCHI>
InChI=1S/C19H19ClN2O/c20-16-8-5-14(6-9-16)7-10-19(23)21-12-11-15-13-22-18-4-2-1-3-17(15)18/h1-6,8-9,13,22H,7,10-12H2,(H,21,23)

> <PUBCHEM_IUPAC_INCHIKEY>
AVHAPQFSRZNSJM-UHFFFAOYSA-N

> <PUBCHEM_XLOGP3>
4.3

> <PUBCHEM_EXACT_MASS>
326.118591

> <PUBCHEM_MOLECULAR_FORMULA>
C19H19ClN2O

> <PUBCHEM_MOLECULAR_WEIGHT>
326.81996

> <PUBCHEM_OPENEYE_CAN_SMILES>
C1=CC=C2C(=C1)C(=CN2)CCNC(=O)CCC3=CC=C(C=C3)Cl

> <PUBCHEM_OPENEYE_ISO_SMILES>
C1=CC=C2C(=C1)C(=CN2)CCNC(=O)CCC3=CC=C(C=C3)Cl

> <PUBCHEM_CACTVS_TPSA>
44.9

> <PUBCHEM_MONOISOTOPIC_WEIGHT>
326.118591

> <PUBCHEM_TOTAL_CHARGE>
0

> <PUBCHEM_HEAVY_ATOM_COUNT>
23

> <PUBCHEM_ATOM_DEF_STEREO_COUNT>
0

> <PUBCHEM_ATOM_UDEF_STEREO_COUNT>
0

> <PUBCHEM_BOND_DEF_STEREO_COUNT>
0

> <PUBCHEM_BOND_UDEF_STEREO_COUNT>
0

> <PUBCHEM_ISOTOPIC_ATOM_COUNT>
0

> <PUBCHEM_COMPONENT_COUNT>
1

> <PUBCHEM_CACTVS_TAUTO_COUNT>
2

> <PUBCHEM_COORDINATE_TYPE>
1
5
255

> <PUBCHEM_BONDANNOTATIONS>
13  17  8
15  18  8
16  19  8
16  20  8
17  18  8
19  21  8
20  22  8
21  23  8
22  23  8
3  10  8
3  9  8
5  10  8
5  7  8
7  13  8
7  9  8
9  15  8

$$$$
