49366543
  -OEChem-03061303142D

 41 42  0     0  0  0  0  0  0999 V2000
    6.6353   -0.3264    0.0000 O   0  0  0  0  0  0  0  0  0  0  0  0
    6.2781    1.3684    0.0000 N   0  0  0  0  0  0  0  0  0  0  0  0
    4.6783   -2.3483    0.0000 N   0  0  0  0  0  0  0  0  0  0  0  0
    7.2566    1.5747    0.0000 C   0  0  0  0  0  0  0  0  0  0  0  0
    8.2351    1.7809    0.0000 C   0  0  0  0  0  0  0  0  0  0  0  0
    7.0504    2.5532    0.0000 C   0  0  0  0  0  0  0  0  0  0  0  0
    7.4628    0.5961    0.0000 C   0  0  0  0  0  0  0  0  0  0  0  0
    8.5458    2.7314    0.0000 C   0  0  0  0  0  0  0  0  0  0  0  0
    5.9674    0.4179    0.0000 C   0  0  0  0  0  0  0  0  0  0  0  0
    4.9889    0.2117    0.0000 C   0  0  0  0  0  0  0  0  0  0  0  0
    4.6783   -0.7388    0.0000 C   0  0  0  0  0  0  0  0  0  0  0  0
    9.5243    2.9376    0.0000 C   0  0  0  0  0  0  0  0  0  0  0  0
    3.7320   -1.0436    0.0000 C   0  0  0  0  0  0  0  0  0  0  0  0
    3.7320   -2.0436    0.0000 C   0  0  0  0  0  0  0  0  0  0  0  0
    5.2619   -1.5436    0.0000 C   0  0  0  0  0  0  0  0  0  0  0  0
    2.8660   -0.5436    0.0000 C   0  0  0  0  0  0  0  0  0  0  0  0
    2.8660   -2.5436    0.0000 C   0  0  0  0  0  0  0  0  0  0  0  0
    2.0000   -1.0436    0.0000 C   0  0  0  0  0  0  0  0  0  0  0  0
    2.0000   -2.0436    0.0000 C   0  0  0  0  0  0  0  0  0  0  0  0
    8.2557    1.1612    0.0000 H   0  0  0  0  0  0  0  0  0  0  0  0
    8.8489    1.6935    0.0000 H   0  0  0  0  0  0  0  0  0  0  0  0
    5.8640    1.8299    0.0000 H   0  0  0  0  0  0  0  0  0  0  0  0
    7.6571    2.6810    0.0000 H   0  0  0  0  0  0  0  0  0  0  0  0
    6.9225    3.1598    0.0000 H   0  0  0  0  0  0  0  0  0  0  0  0
    6.4437    2.4253    0.0000 H   0  0  0  0  0  0  0  0  0  0  0  0
    6.8562    0.4683    0.0000 H   0  0  0  0  0  0  0  0  0  0  0  0
    7.5907   -0.0105    0.0000 H   0  0  0  0  0  0  0  0  0  0  0  0
    8.0695    0.7240    0.0000 H   0  0  0  0  0  0  0  0  0  0  0  0
    8.5252    3.3510    0.0000 H   0  0  0  0  0  0  0  0  0  0  0  0
    7.9320    2.8187    0.0000 H   0  0  0  0  0  0  0  0  0  0  0  0
    4.9684    0.8314    0.0000 H   0  0  0  0  0  0  0  0  0  0  0  0
    4.3751    0.2990    0.0000 H   0  0  0  0  0  0  0  0  0  0  0  0
    9.6521    2.3309    0.0000 H   0  0  0  0  0  0  0  0  0  0  0  0
   10.1310    3.0655    0.0000 H   0  0  0  0  0  0  0  0  0  0  0  0
    9.3964    3.5443    0.0000 H   0  0  0  0  0  0  0  0  0  0  0  0
    5.8819   -1.5436    0.0000 H   0  0  0  0  0  0  0  0  0  0  0  0
    4.8709   -2.9376    0.0000 H   0  0  0  0  0  0  0  0  0  0  0  0
    2.8660    0.0764    0.0000 H   0  0  0  0  0  0  0  0  0  0  0  0
    2.8660   -3.1636    0.0000 H   0  0  0  0  0  0  0  0  0  0  0  0
    1.4631   -0.7336    0.0000 H   0  0  0  0  0  0  0  0  0  0  0  0
    1.4631   -2.3536    0.0000 H   0  0  0  0  0  0  0  0  0  0  0  0
  1  9  2  0  0  0  0
  2  4  1  0  0  0  0
  2  9  1  0  0  0  0
  2 22  1  0  0  0  0
  3 14  1  0  0  0  0
  3 15  1  0  0  0  0
  3 37  1  0  0  0  0
  4  5  1  0  0  0  0
  4  6  1  0  0  0  0
  4  7  1  0  0  0  0
  5  8  1  0  0  0  0
  5 20  1  0  0  0  0
  5 21  1  0  0  0  0
  6 23  1  0  0  0  0
  6 24  1  0  0  0  0
  6 25  1  0  0  0  0
  7 26  1  0  0  0  0
  7 27  1  0  0  0  0
  7 28  1  0  0  0  0
  8 12  1  0  0  0  0
  8 29  1  0  0  0  0
  8 30  1  0  0  0  0
  9 10  1  0  0  0  0
 10 11  1  0  0  0  0
 10 31  1  0  0  0  0
 10 32  1  0  0  0  0
 11 13  1  0  0  0  0
 11 15  2  0  0  0  0
 12 33  1  0  0  0  0
 12 34  1  0  0  0  0
 12 35  1  0  0  0  0
 13 14  1  0  0  0  0
 13 16  2  0  0  0  0
 14 17  2  0  0  0  0
 15 36  1  0  0  0  0
 16 18  1  0  0  0  0
 16 38  1  0  0  0  0
 17 19  1  0  0  0  0
 17 39  1  0  0  0  0
 18 19  2  0  0  0  0
 18 40  1  0  0  0  0
 19 41  1  0  0  0  0
M  END
> <PUBCHEM_COMPOUND_CID>
49366543

> <PUBCHEM_COMPOUND_CANONICALIZED>
1

> <PUBCHEM_CACTVS_COMPLEXITY>
314

> <PUBCHEM_CACTVS_HBOND_ACCEPTOR>
1

> <PUBCHEM_CACTVS_HBOND_DONOR>
2

> <PUBCHEM_CACTVS_ROTATABLE_BOND>
5

> <PUBCHEM_CACTVS_SUBSKEYS>
AAADceB7IAAAAAAAAAAAAAAAAAAAAWAAAAAwAAAAAAAAAFgB8AAAHgAQAAAADIjBngQ+wPLJkACoAzV3VACCgCAxAiAI2aE4ZJgIIPLAlZGEIAhglADIyAccicCegAAAAAACAAAAAAAAAAQAAAAAAAAAAA==

> <PUBCHEM_IUPAC_OPENEYE_NAME>
N-(1,1-dimethylbutyl)-2-(1H-indol-3-yl)acetamide

> <PUBCHEM_IUPAC_CAS_NAME>
2-(1H-indol-3-yl)-N-(2-methylpentan-2-yl)acetamide

> <PUBCHEM_IUPAC_NAME>
2-(1H-indol-3-yl)-N-(2-methylpentan-2-yl)acetamide

> <PUBCHEM_IUPAC_SYSTEMATIC_NAME>
2-(1H-indol-3-yl)-N-(2-methylpentan-2-yl)ethanamide

> <PUBCHEM_IUPAC_TRADITIONAL_NAME>
N-(1,1-dimethylbutyl)-2-(1H-indol-3-yl)acetamide

> <PUBCHEM_IUPAC_INCHI>
InChI=1S/C16H22N2O/c1-4-9-16(2,3)18-15(19)10-12-11-17-14-8-6-5-7-13(12)14/h5-8,11,17H,4,9-10H2,1-3H3,(H,18,19)

> <PUBCHEM_IUPAC_INCHIKEY>
WJCKLLNDBBVAME-UHFFFAOYSA-N

> <PUBCHEM_XLOGP3>
3

> <PUBCHEM_EXACT_MASS>
258.173213

> <PUBCHEM_MOLECULAR_FORMULA>
C16H22N2O

> <PUBCHEM_MOLECULAR_WEIGHT>
258.35868

> <PUBCHEM_OPENEYE_CAN_SMILES>
CCCC(C)(C)NC(=O)CC1=CNC2=CC=CC=C21

> <PUBCHEM_OPENEYE_ISO_SMILES>
CCCC(C)(C)NC(=O)CC1=CNC2=CC=CC=C21

> <PUBCHEM_CACTVS_TPSA>
44.9

> <PUBCHEM_MONOISOTOPIC_WEIGHT>
258.173213

> <PUBCHEM_TOTAL_CHARGE>
0

> <PUBCHEM_HEAVY_ATOM_COUNT>
19

> <PUBCHEM_ATOM_DEF_STEREO_COUNT>
0

> <PUBCHEM_ATOM_UDEF_STEREO_COUNT>
0

> <PUBCHEM_BOND_DEF_STEREO_COUNT>
0

> <PUBCHEM_BOND_UDEF_STEREO_COUNT>
0

> <PUBCHEM_ISOTOPIC_ATOM_COUNT>
0

> <PUBCHEM_COMPONENT_COUNT>
1

> <PUBCHEM_CACTVS_TAUTO_COUNT>
2

> <PUBCHEM_COORDINATE_TYPE>
1
5
255

> <PUBCHEM_BONDANNOTATIONS>
11  13  8
11  15  8
13  14  8
13  16  8
14  17  8
16  18  8
17  19  8
18  19  8
3  14  8
3  15  8

$$$$
