62800949
  -OEChem-11301218212D

 22 22  0     0  0  0  0  0  0999 V2000
    5.4641    2.2500    0.0000 Cl  0  0  0  0  0  0  0  0  0  0  0  0
    6.3301   -2.2500    0.0000 Cl  0  0  0  0  0  0  0  0  0  0  0  0
    2.8660   -0.2500    0.0000 O   0  0  0  0  0  0  0  0  0  0  0  0
    4.5981   -0.2500    0.0000 C   0  0  0  0  0  0  0  0  0  0  0  0
    4.5981    0.7500    0.0000 C   0  0  0  0  0  0  0  0  0  0  0  0
    3.7320   -0.7500    0.0000 C   0  0  0  0  0  0  0  0  0  0  0  0
    5.4641   -0.7500    0.0000 C   0  0  0  0  0  0  0  0  0  0  0  0
    5.4641    1.2500    0.0000 C   0  0  0  0  0  0  0  0  0  0  0  0
    3.7320   -1.7500    0.0000 C   0  0  0  0  0  0  0  0  0  0  0  0
    5.4641   -1.7500    0.0000 C   0  0  0  0  0  0  0  0  0  0  0  0
    4.5981   -2.2500    0.0000 C   0  0  0  0  0  0  0  0  0  0  0  0
    2.0000   -0.7500    0.0000 C   0  0  0  0  0  0  0  0  0  0  0  0
    4.3860    1.3326    0.0000 H   0  0  0  0  0  0  0  0  0  0  0  0
    3.9875    0.6423    0.0000 H   0  0  0  0  0  0  0  0  0  0  0  0
    6.0010   -0.4400    0.0000 H   0  0  0  0  0  0  0  0  0  0  0  0
    5.6762    0.6674    0.0000 H   0  0  0  0  0  0  0  0  0  0  0  0
    6.0747    1.3577    0.0000 H   0  0  0  0  0  0  0  0  0  0  0  0
    3.1951   -2.0600    0.0000 H   0  0  0  0  0  0  0  0  0  0  0  0
    4.5981   -2.8700    0.0000 H   0  0  0  0  0  0  0  0  0  0  0  0
    1.6900   -0.2131    0.0000 H   0  0  0  0  0  0  0  0  0  0  0  0
    1.4631   -1.0600    0.0000 H   0  0  0  0  0  0  0  0  0  0  0  0
    2.3100   -1.2869    0.0000 H   0  0  0  0  0  0  0  0  0  0  0  0
  1  8  1  0  0  0  0
  2 10  1  0  0  0  0
  3  6  1  0  0  0  0
  3 12  1  0  0  0  0
  4  5  1  0  0  0  0
  4  6  2  0  0  0  0
  4  7  1  0  0  0  0
  5  8  1  0  0  0  0
  5 13  1  0  0  0  0
  5 14  1  0  0  0  0
  6  9  1  0  0  0  0
  7 10  2  0  0  0  0
  7 15  1  0  0  0  0
  8 16  1  0  0  0  0
  8 17  1  0  0  0  0
  9 11  2  0  0  0  0
  9 18  1  0  0  0  0
 10 11  1  0  0  0  0
 11 19  1  0  0  0  0
 12 20  1  0  0  0  0
 12 21  1  0  0  0  0
 12 22  1  0  0  0  0
M  END
> <PUBCHEM_COMPOUND_CID>
62800949

> <PUBCHEM_COMPOUND_CANONICALIZED>
1

> <PUBCHEM_CACTVS_COMPLEXITY>
130

> <PUBCHEM_CACTVS_HBOND_ACCEPTOR>
1

> <PUBCHEM_CACTVS_HBOND_DONOR>
0

> <PUBCHEM_CACTVS_ROTATABLE_BOND>
3

> <PUBCHEM_CACTVS_SUBSKEYS>
AAADccBwIAAGAAAAAAAAAAAAAAAAAAAAAAAwAAAAAAAAAAABAAAAGgIAAAAADAeAmGIyBoAABACAAiBCAAACCAAgJQAIiAAGCogMJiKFMxqAMCAkwBEIqAeAwKAOACAAIAAIAAAAQABAABAAAAAAAAAAAA==

> <PUBCHEM_IUPAC_OPENEYE_NAME>
4-chloro-2-(2-chloroethyl)-1-methoxy-benzene

> <PUBCHEM_IUPAC_CAS_NAME>
4-chloro-2-(2-chloroethyl)-1-methoxybenzene

> <PUBCHEM_IUPAC_NAME>
4-chloro-2-(2-chloroethyl)-1-methoxybenzene

> <PUBCHEM_IUPAC_SYSTEMATIC_NAME>
4-chloranyl-2-(2-chloroethyl)-1-methoxy-benzene

> <PUBCHEM_IUPAC_TRADITIONAL_NAME>
4-chloro-2-(2-chloroethyl)-1-methoxy-benzene

> <PUBCHEM_IUPAC_INCHI>
InChI=1S/C9H10Cl2O/c1-12-9-3-2-8(11)6-7(9)4-5-10/h2-3,6H,4-5H2,1H3

> <PUBCHEM_IUPAC_INCHIKEY>
IVGXYKNPFPOWFH-UHFFFAOYSA-N

> <PUBCHEM_XLOGP3>
3.5

> <PUBCHEM_EXACT_MASS>
204.01087

> <PUBCHEM_MOLECULAR_FORMULA>
C9H10Cl2O

> <PUBCHEM_MOLECULAR_WEIGHT>
205.0811

> <PUBCHEM_OPENEYE_CAN_SMILES>
COC1=C(C=C(C=C1)Cl)CCCl

> <PUBCHEM_OPENEYE_ISO_SMILES>
COC1=C(C=C(C=C1)Cl)CCCl

> <PUBCHEM_CACTVS_TPSA>
9.2

> <PUBCHEM_MONOISOTOPIC_WEIGHT>
204.01087

> <PUBCHEM_TOTAL_CHARGE>
0

> <PUBCHEM_HEAVY_ATOM_COUNT>
12

> <PUBCHEM_ATOM_DEF_STEREO_COUNT>
0

> <PUBCHEM_ATOM_UDEF_STEREO_COUNT>
0

> <PUBCHEM_BOND_DEF_STEREO_COUNT>
0

> <PUBCHEM_BOND_UDEF_STEREO_COUNT>
0

> <PUBCHEM_ISOTOPIC_ATOM_COUNT>
0

> <PUBCHEM_COMPONENT_COUNT>
1

> <PUBCHEM_CACTVS_TAUTO_COUNT>
1

> <PUBCHEM_COORDINATE_TYPE>
1
5
255

> <PUBCHEM_BONDANNOTATIONS>
10  11  8
4  6  8
4  7  8
6  9  8
7  10  8
9  11  8

$$$$
62802269
  -OEChem-11301218212D

 22 22  0     0  0  0  0  0  0999 V2000
    5.4641    2.2500    0.0000 Br  0  0  0  0  0  0  0  0  0  0  0  0
    6.3301   -2.2500    0.0000 Cl  0  0  0  0  0  0  0  0  0  0  0  0
    2.8660   -0.2500    0.0000 O   0  0  0  0  0  0  0  0  0  0  0  0
    4.5981   -0.2500    0.0000 C   0  0  0  0  0  0  0  0  0  0  0  0
    4.5981    0.7500    0.0000 C   0  0  0  0  0  0  0  0  0  0  0  0
    3.7320   -0.7500    0.0000 C   0  0  0  0  0  0  0  0  0  0  0  0
    5.4641   -0.7500    0.0000 C   0  0  0  0  0  0  0  0  0  0  0  0
    5.4641    1.2500    0.0000 C   0  0  0  0  0  0  0  0  0  0  0  0
    3.7320   -1.7500    0.0000 C   0  0  0  0  0  0  0  0  0  0  0  0
    5.4641   -1.7500    0.0000 C   0  0  0  0  0  0  0  0  0  0  0  0
    4.5981   -2.2500    0.0000 C   0  0  0  0  0  0  0  0  0  0  0  0
    2.0000   -0.7500    0.0000 C   0  0  0  0  0  0  0  0  0  0  0  0
    4.3860    1.3326    0.0000 H   0  0  0  0  0  0  0  0  0  0  0  0
    3.9875    0.6423    0.0000 H   0  0  0  0  0  0  0  0  0  0  0  0
    6.0010   -0.4400    0.0000 H   0  0  0  0  0  0  0  0  0  0  0  0
    5.6762    0.6674    0.0000 H   0  0  0  0  0  0  0  0  0  0  0  0
    6.0747    1.3577    0.0000 H   0  0  0  0  0  0  0  0  0  0  0  0
    3.1951   -2.0600    0.0000 H   0  0  0  0  0  0  0  0  0  0  0  0
    4.5981   -2.8700    0.0000 H   0  0  0  0  0  0  0  0  0  0  0  0
    1.6900   -0.2131    0.0000 H   0  0  0  0  0  0  0  0  0  0  0  0
    1.4631   -1.0600    0.0000 H   0  0  0  0  0  0  0  0  0  0  0  0
    2.3100   -1.2869    0.0000 H   0  0  0  0  0  0  0  0  0  0  0  0
  1  8  1  0  0  0  0
  2 10  1  0  0  0  0
  3  6  1  0  0  0  0
  3 12  1  0  0  0  0
  4  5  1  0  0  0  0
  4  6  2  0  0  0  0
  4  7  1  0  0  0  0
  5  8  1  0  0  0  0
  5 13  1  0  0  0  0
  5 14  1  0  0  0  0
  6  9  1  0  0  0  0
  7 10  2  0  0  0  0
  7 15  1  0  0  0  0
  8 16  1  0  0  0  0
  8 17  1  0  0  0  0
  9 11  2  0  0  0  0
  9 18  1  0  0  0  0
 10 11  1  0  0  0  0
 11 19  1  0  0  0  0
 12 20  1  0  0  0  0
 12 21  1  0  0  0  0
 12 22  1  0  0  0  0
M  END
> <PUBCHEM_COMPOUND_CID>
62802269

> <PUBCHEM_COMPOUND_CANONICALIZED>
1

> <PUBCHEM_CACTVS_COMPLEXITY>
132

> <PUBCHEM_CACTVS_HBOND_ACCEPTOR>
1

> <PUBCHEM_CACTVS_HBOND_DONOR>
0

> <PUBCHEM_CACTVS_ROTATABLE_BOND>
3

> <PUBCHEM_CACTVS_SUBSKEYS>
AAADccBwIAAEEAAAAAAAAAAAAAAAAAAAAAAwAAAAAAAAAAABAAAAGgJAAAABTAaAmCIyBoAABACAAiBCAAACCAAgJQAIiAAGCqgMJiKFMxqAMCAkwBEIqBeAwKAOACAAIAAIAAAAQABAABAAAAAAAAAAAA==

> <PUBCHEM_IUPAC_OPENEYE_NAME>
2-(2-bromoethyl)-4-chloro-1-methoxy-benzene

> <PUBCHEM_IUPAC_CAS_NAME>
2-(2-bromoethyl)-4-chloro-1-methoxybenzene

> <PUBCHEM_IUPAC_NAME>
2-(2-bromoethyl)-4-chloro-1-methoxybenzene

> <PUBCHEM_IUPAC_SYSTEMATIC_NAME>
2-(2-bromoethyl)-4-chloranyl-1-methoxy-benzene

> <PUBCHEM_IUPAC_TRADITIONAL_NAME>
2-(2-bromoethyl)-4-chloro-1-methoxy-benzene

> <PUBCHEM_IUPAC_INCHI>
InChI=1S/C9H10BrClO/c1-12-9-3-2-8(11)6-7(9)4-5-10/h2-3,6H,4-5H2,1H3

> <PUBCHEM_IUPAC_INCHIKEY>
WRRCOXVIYVJYEX-UHFFFAOYSA-N

> <PUBCHEM_XLOGP3>
3.6

> <PUBCHEM_EXACT_MASS>
247.960355

> <PUBCHEM_MOLECULAR_FORMULA>
C9H10BrClO

> <PUBCHEM_MOLECULAR_WEIGHT>
249.5321

> <PUBCHEM_OPENEYE_CAN_SMILES>
COC1=C(C=C(C=C1)Cl)CCBr

> <PUBCHEM_OPENEYE_ISO_SMILES>
COC1=C(C=C(C=C1)Cl)CCBr

> <PUBCHEM_CACTVS_TPSA>
9.2

> <PUBCHEM_MONOISOTOPIC_WEIGHT>
247.960355

> <PUBCHEM_TOTAL_CHARGE>
0

> <PUBCHEM_HEAVY_ATOM_COUNT>
12

> <PUBCHEM_ATOM_DEF_STEREO_COUNT>
0

> <PUBCHEM_ATOM_UDEF_STEREO_COUNT>
0

> <PUBCHEM_BOND_DEF_STEREO_COUNT>
0

> <PUBCHEM_BOND_UDEF_STEREO_COUNT>
0

> <PUBCHEM_ISOTOPIC_ATOM_COUNT>
0

> <PUBCHEM_COMPONENT_COUNT>
1

> <PUBCHEM_CACTVS_TAUTO_COUNT>
1

> <PUBCHEM_COORDINATE_TYPE>
1
5
255

> <PUBCHEM_BONDANNOTATIONS>
10  11  8
4  6  8
4  7  8
6  9  8
7  10  8
9  11  8

$$$$
