48134711
  -OEChem-10201218372D

 50 50  0     0  0  0  0  0  0999 V2000
    8.9282   -4.5670    0.0000 F   0  0  0  0  0  0  0  0  0  0  0  0
    7.5622   -4.9330    0.0000 F   0  0  0  0  0  0  0  0  0  0  0  0
    8.5622   -3.2010    0.0000 F   0  0  0  0  0  0  0  0  0  0  0  0
    2.0000   -4.5670    0.0000 F   0  0  0  0  0  0  0  0  0  0  0  0
    3.3660   -4.9330    0.0000 F   0  0  0  0  0  0  0  0  0  0  0  0
    2.3660   -3.2010    0.0000 F   0  0  0  0  0  0  0  0  0  0  0  0
    7.1962   -2.5670    0.0000 O   0  0  0  0  0  0  0  0  0  0  0  0
    3.7320   -2.5670    0.0000 O   0  0  0  0  0  0  0  0  0  0  0  0
    4.5981    0.9330    0.0000 O   0  0  0  0  0  0  0  0  0  0  0  0
    7.1962    3.4330    0.0000 N   0  0  0  0  0  0  0  0  0  0  0  0
    6.3301    0.9330    0.0000 N   0  0  0  0  0  0  0  0  0  0  0  0
    7.1962    2.4330    0.0000 C   0  0  0  0  0  0  0  0  0  0  0  0
    6.3301    1.9330    0.0000 C   0  0  0  0  0  0  0  0  0  0  0  0
    8.0622    3.9330    0.0000 C   0  0  0  0  0  0  0  0  0  0  0  0
    6.3301    3.9330    0.0000 C   0  0  0  0  0  0  0  0  0  0  0  0
    8.0622    4.9330    0.0000 C   0  0  0  0  0  0  0  0  0  0  0  0
    6.3301    4.9330    0.0000 C   0  0  0  0  0  0  0  0  0  0  0  0
    5.4641    0.4330    0.0000 C   0  0  0  0  0  0  0  0  0  0  0  0
    5.4641   -0.5670    0.0000 C   0  0  0  0  0  0  0  0  0  0  0  0
    4.5981   -1.0670    0.0000 C   0  0  0  0  0  0  0  0  0  0  0  0
    6.3301   -1.0670    0.0000 C   0  0  0  0  0  0  0  0  0  0  0  0
    6.3301   -2.0670    0.0000 C   0  0  0  0  0  0  0  0  0  0  0  0
    4.5981   -2.0670    0.0000 C   0  0  0  0  0  0  0  0  0  0  0  0
    5.4641   -2.5670    0.0000 C   0  0  0  0  0  0  0  0  0  0  0  0
    7.1962   -3.5670    0.0000 C   0  0  0  0  0  0  0  0  0  0  0  0
    3.7320   -3.5670    0.0000 C   0  0  0  0  0  0  0  0  0  0  0  0
    8.0622   -4.0670    0.0000 C   0  0  0  0  0  0  0  0  0  0  0  0
    2.8660   -4.0670    0.0000 C   0  0  0  0  0  0  0  0  0  0  0  0
    7.4082    1.8504    0.0000 H   0  0  0  0  0  0  0  0  0  0  0  0
    7.8067    2.5407    0.0000 H   0  0  0  0  0  0  0  0  0  0  0  0
    6.1181    2.5156    0.0000 H   0  0  0  0  0  0  0  0  0  0  0  0
    5.7196    1.8254    0.0000 H   0  0  0  0  0  0  0  0  0  0  0  0
    5.7196    4.0407    0.0000 H   0  0  0  0  0  0  0  0  0  0  0  0
    6.1181    3.3504    0.0000 H   0  0  0  0  0  0  0  0  0  0  0  0
    8.2742    3.3504    0.0000 H   0  0  0  0  0  0  0  0  0  0  0  0
    8.6728    4.0407    0.0000 H   0  0  0  0  0  0  0  0  0  0  0  0
    6.8671    0.6230    0.0000 H   0  0  0  0  0  0  0  0  0  0  0  0
    6.9501    4.9330    0.0000 H   0  0  0  0  0  0  0  0  0  0  0  0
    8.6822    4.9330    0.0000 H   0  0  0  0  0  0  0  0  0  0  0  0
    8.0622    5.5530    0.0000 H   0  0  0  0  0  0  0  0  0  0  0  0
    7.4422    4.9330    0.0000 H   0  0  0  0  0  0  0  0  0  0  0  0
    6.3301    5.5530    0.0000 H   0  0  0  0  0  0  0  0  0  0  0  0
    5.7101    4.9330    0.0000 H   0  0  0  0  0  0  0  0  0  0  0  0
    4.0611   -0.7570    0.0000 H   0  0  0  0  0  0  0  0  0  0  0  0
    6.8671   -0.7570    0.0000 H   0  0  0  0  0  0  0  0  0  0  0  0
    5.4641   -3.1870    0.0000 H   0  0  0  0  0  0  0  0  0  0  0  0
    6.5856   -3.4593    0.0000 H   0  0  0  0  0  0  0  0  0  0  0  0
    6.9841   -4.1496    0.0000 H   0  0  0  0  0  0  0  0  0  0  0  0
    3.9441   -4.1496    0.0000 H   0  0  0  0  0  0  0  0  0  0  0  0
    4.3426   -3.4593    0.0000 H   0  0  0  0  0  0  0  0  0  0  0  0
  1 27  1  0  0  0  0
  2 27  1  0  0  0  0
  3 27  1  0  0  0  0
  4 28  1  0  0  0  0
  5 28  1  0  0  0  0
  6 28  1  0  0  0  0
  7 22  1  0  0  0  0
  7 25  1  0  0  0  0
  8 23  1  0  0  0  0
  8 26  1  0  0  0  0
  9 18  2  0  0  0  0
 10 12  1  0  0  0  0
 10 14  1  0  0  0  0
 10 15  1  0  0  0  0
 11 13  1  0  0  0  0
 11 18  1  0  0  0  0
 11 37  1  0  0  0  0
 12 13  1  0  0  0  0
 12 29  1  0  0  0  0
 12 30  1  0  0  0  0
 13 31  1  0  0  0  0
 13 32  1  0  0  0  0
 14 16  1  0  0  0  0
 14 35  1  0  0  0  0
 14 36  1  0  0  0  0
 15 17  1  0  0  0  0
 15 33  1  0  0  0  0
 15 34  1  0  0  0  0
 16 39  1  0  0  0  0
 16 40  1  0  0  0  0
 16 41  1  0  0  0  0
 17 38  1  0  0  0  0
 17 42  1  0  0  0  0
 17 43  1  0  0  0  0
 18 19  1  0  0  0  0
 19 20  2  0  0  0  0
 19 21  1  0  0  0  0
 20 23  1  0  0  0  0
 20 44  1  0  0  0  0
 21 22  2  0  0  0  0
 21 45  1  0  0  0  0
 22 24  1  0  0  0  0
 23 24  2  0  0  0  0
 24 46  1  0  0  0  0
 25 27  1  0  0  0  0
 25 47  1  0  0  0  0
 25 48  1  0  0  0  0
 26 28  1  0  0  0  0
 26 49  1  0  0  0  0
 26 50  1  0  0  0  0
M  END
> <PUBCHEM_COMPOUND_CID>
48134711

> <PUBCHEM_COMPOUND_CANONICALIZED>
1

> <PUBCHEM_CACTVS_COMPLEXITY>
443

> <PUBCHEM_CACTVS_HBOND_ACCEPTOR>
10

> <PUBCHEM_CACTVS_HBOND_DONOR>
1

> <PUBCHEM_CACTVS_ROTATABLE_BOND>
10

> <PUBCHEM_CACTVS_SUBSKEYS>
AAADceB7McAAAAAAAAAAAAAAAAAAAAAAAAAwAAAAAAAAAAABAAAAHwAQAAAADAThmBYyBoPABACIAiFSEACCCAAkIAAAiIEODMgMZzKEtRuWOSjl1hWIqYe66ByOAAABCAAAAAAAAAIQAAAAAAAAAAAAAA==

> <PUBCHEM_IUPAC_OPENEYE_NAME>
N-[2-(diethylamino)ethyl]-3,5-bis(2,2,2-trifluoroethoxy)benzamide

> <PUBCHEM_IUPAC_CAS_NAME>
N-[2-(diethylamino)ethyl]-3,5-bis(2,2,2-trifluoroethoxy)benzamide

> <PUBCHEM_IUPAC_NAME>
N-[2-(diethylamino)ethyl]-3,5-bis(2,2,2-trifluoroethoxy)benzamide

> <PUBCHEM_IUPAC_SYSTEMATIC_NAME>
N-[2-(diethylamino)ethyl]-3,5-bis[2,2,2-tris(fluoranyl)ethoxy]benzamide

> <PUBCHEM_IUPAC_TRADITIONAL_NAME>
N-[2-(diethylamino)ethyl]-3,5-bis(2,2,2-trifluoroethoxy)benzamide

> <PUBCHEM_IUPAC_INCHI>
InChI=1S/C17H22F6N2O3/c1-3-25(4-2)6-5-24-15(26)12-7-13(27-10-16(18,19)20)9-14(8-12)28-11-17(21,22)23/h7-9H,3-6,10-11H2,1-2H3,(H,24,26)

> <PUBCHEM_IUPAC_INCHIKEY>
XPYFBRABBJKMAB-UHFFFAOYSA-N

> <PUBCHEM_XLOGP3>
4.7

> <PUBCHEM_EXACT_MASS>
416.153462

> <PUBCHEM_MOLECULAR_FORMULA>
C17H22F6N2O3

> <PUBCHEM_MOLECULAR_WEIGHT>
416.358599

> <PUBCHEM_OPENEYE_CAN_SMILES>
CCN(CC)CCNC(=O)C1=CC(=CC(=C1)OCC(F)(F)F)OCC(F)(F)F

> <PUBCHEM_OPENEYE_ISO_SMILES>
CCN(CC)CCNC(=O)C1=CC(=CC(=C1)OCC(F)(F)F)OCC(F)(F)F

> <PUBCHEM_CACTVS_TPSA>
50.8

> <PUBCHEM_MONOISOTOPIC_WEIGHT>
416.153462

> <PUBCHEM_TOTAL_CHARGE>
0

> <PUBCHEM_HEAVY_ATOM_COUNT>
28

> <PUBCHEM_ATOM_DEF_STEREO_COUNT>
0

> <PUBCHEM_ATOM_UDEF_STEREO_COUNT>
0

> <PUBCHEM_BOND_DEF_STEREO_COUNT>
0

> <PUBCHEM_BOND_UDEF_STEREO_COUNT>
0

> <PUBCHEM_ISOTOPIC_ATOM_COUNT>
0

> <PUBCHEM_COMPONENT_COUNT>
1

> <PUBCHEM_CACTVS_TAUTO_COUNT>
2

> <PUBCHEM_COORDINATE_TYPE>
1
5
255

> <PUBCHEM_BONDANNOTATIONS>
19  20  8
19  21  8
20  23  8
21  22  8
22  24  8
23  24  8

$$$$
