40104965
  -OEChem-12041211572D

 41 42  0     0  0  0  0  0  0999 V2000
    2.0000   -0.4933    0.0000 Cl  0  0  0  0  0  0  0  0  0  0  0  0
    4.2533   -3.7982    0.0000 Cl  0  0  0  0  0  0  0  0  0  0  0  0
    5.5549   -1.0953    0.0000 O   0  0  0  0  0  0  0  0  0  0  0  0
    6.8566    1.6076    0.0000 N   0  3  0  0  0  0  0  0  0  0  0  0
    3.9944   -0.3438    0.0000 N   0  0  0  0  0  0  0  0  0  0  0  0
    5.9556    2.0415    0.0000 C   0  0  0  0  0  0  0  0  0  0  0  0
    7.7576    2.0415    0.0000 C   0  0  0  0  0  0  0  0  0  0  0  0
    5.7331    3.0164    0.0000 C   0  0  0  0  0  0  0  0  0  0  0  0
    7.9801    3.0164    0.0000 C   0  0  0  0  0  0  0  0  0  0  0  0
    6.4227    0.7066    0.0000 C   0  0  0  0  0  0  0  0  0  0  0  0
    6.3566    3.7982    0.0000 C   0  0  0  0  0  0  0  0  0  0  0  0
    7.3566    3.7982    0.0000 C   0  0  0  0  0  0  0  0  0  0  0  0
    5.4255    0.6319    0.0000 C   0  0  0  0  0  0  0  0  0  0  0  0
    4.9916   -0.2691    0.0000 C   0  0  0  0  0  0  0  0  0  0  0  0
    3.5605   -1.2448    0.0000 C   0  0  0  0  0  0  0  0  0  0  0  0
    2.5633   -1.3195    0.0000 C   0  0  0  0  0  0  0  0  0  0  0  0
    4.1238   -2.0710    0.0000 C   0  0  0  0  0  0  0  0  0  0  0  0
    3.6900   -2.9720    0.0000 C   0  0  0  0  0  0  0  0  0  0  0  0
    2.1294   -2.2205    0.0000 C   0  0  0  0  0  0  0  0  0  0  0  0
    2.6928   -3.0467    0.0000 C   0  0  0  0  0  0  0  0  0  0  0  0
    7.1256    1.0490    0.0000 H   0  0  0  0  0  0  0  0  0  0  0  0
    5.3356    2.0415    0.0000 H   0  0  0  0  0  0  0  0  0  0  0  0
    5.8177    1.4370    0.0000 H   0  0  0  0  0  0  0  0  0  0  0  0
    7.8955    1.4370    0.0000 H   0  0  0  0  0  0  0  0  0  0  0  0
    8.3776    2.0415    0.0000 H   0  0  0  0  0  0  0  0  0  0  0  0
    5.3465    3.5011    0.0000 H   0  0  0  0  0  0  0  0  0  0  0  0
    5.1745    2.7474    0.0000 H   0  0  0  0  0  0  0  0  0  0  0  0
    8.5387    2.7474    0.0000 H   0  0  0  0  0  0  0  0  0  0  0  0
    8.3666    3.5011    0.0000 H   0  0  0  0  0  0  0  0  0  0  0  0
    6.3610    0.0897    0.0000 H   0  0  0  0  0  0  0  0  0  0  0  0
    7.0195    0.5387    0.0000 H   0  0  0  0  0  0  0  0  0  0  0  0
    6.4946    4.4027    0.0000 H   0  0  0  0  0  0  0  0  0  0  0  0
    7.9152    4.0672    0.0000 H   0  0  0  0  0  0  0  0  0  0  0  0
    7.2186    4.4027    0.0000 H   0  0  0  0  0  0  0  0  0  0  0  0
    5.7980    4.0672    0.0000 H   0  0  0  0  0  0  0  0  0  0  0  0
    5.4872    1.2488    0.0000 H   0  0  0  0  0  0  0  0  0  0  0  0
    4.8287    0.7998    0.0000 H   0  0  0  0  0  0  0  0  0  0  0  0
    3.6452    0.1685    0.0000 H   0  0  0  0  0  0  0  0  0  0  0  0
    4.7421   -2.0247    0.0000 H   0  0  0  0  0  0  0  0  0  0  0  0
    1.5112   -2.2668    0.0000 H   0  0  0  0  0  0  0  0  0  0  0  0
    2.4238   -3.6053    0.0000 H   0  0  0  0  0  0  0  0  0  0  0  0
  1 16  1  0  0  0  0
  2 18  1  0  0  0  0
  3 14  2  0  0  0  0
  4  6  1  0  0  0  0
  4  7  1  0  0  0  0
  4 10  1  0  0  0  0
  4 21  1  0  0  0  0
  5 14  1  0  0  0  0
  5 15  1  0  0  0  0
  5 38  1  0  0  0  0
  6  8  1  0  0  0  0
  6 22  1  0  0  0  0
  6 23  1  0  0  0  0
  7  9  1  0  0  0  0
  7 24  1  0  0  0  0
  7 25  1  0  0  0  0
  8 11  1  0  0  0  0
  8 26  1  0  0  0  0
  8 27  1  0  0  0  0
  9 12  1  0  0  0  0
  9 28  1  0  0  0  0
  9 29  1  0  0  0  0
 10 13  1  0  0  0  0
 10 30  1  0  0  0  0
 10 31  1  0  0  0  0
 11 12  1  0  0  0  0
 11 32  1  0  0  0  0
 11 35  1  0  0  0  0
 12 33  1  0  0  0  0
 12 34  1  0  0  0  0
 13 14  1  0  0  0  0
 13 36  1  0  0  0  0
 13 37  1  0  0  0  0
 15 16  2  0  0  0  0
 15 17  1  0  0  0  0
 16 19  1  0  0  0  0
 17 18  2  0  0  0  0
 17 39  1  0  0  0  0
 18 20  1  0  0  0  0
 19 20  2  0  0  0  0
 19 40  1  0  0  0  0
 20 41  1  0  0  0  0
M  CHG  1   4   1
M  END
> <PUBCHEM_COMPOUND_CID>
40104965

> <PUBCHEM_COMPOUND_CANONICALIZED>
1

> <PUBCHEM_CACTVS_COMPLEXITY>
306

> <PUBCHEM_CACTVS_HBOND_ACCEPTOR>
1

> <PUBCHEM_CACTVS_HBOND_DONOR>
2

> <PUBCHEM_CACTVS_ROTATABLE_BOND>
4

> <PUBCHEM_CACTVS_SUBSKEYS>
AAADceBzIAAGAAAAAAAAAAAAAAAAAAAAAAAwAAAABYAAAAABAAAAHgIQAAAACArBkCQwwIPAAACIACVSUACCAAAhBwAIiIEIZogIICrB05HEIAhglADIyAcQAAAAAAAQAAIAABAAACAABAAAIAAAAAAAAA==

> <PUBCHEM_IUPAC_OPENEYE_NAME>
3-(azepan-1-ium-1-yl)-N-(2,5-dichlorophenyl)propanamide

> <PUBCHEM_IUPAC_CAS_NAME>
3-(1-azepan-1-iumyl)-N-(2,5-dichlorophenyl)propanamide

> <PUBCHEM_IUPAC_NAME>
3-(azepan-1-ium-1-yl)-N-(2,5-dichlorophenyl)propanamide

> <PUBCHEM_IUPAC_SYSTEMATIC_NAME>
3-(azepan-1-ium-1-yl)-N-[2,5-bis(chloranyl)phenyl]propanamide

> <PUBCHEM_IUPAC_TRADITIONAL_NAME>
3-(azepan-1-ium-1-yl)-N-(2,5-dichlorophenyl)propionamide

> <PUBCHEM_IUPAC_INCHI>
InChI=1S/C15H20Cl2N2O/c16-12-5-6-13(17)14(11-12)18-15(20)7-10-19-8-3-1-2-4-9-19/h5-6,11H,1-4,7-10H2,(H,18,20)/p+1

> <PUBCHEM_IUPAC_INCHIKEY>
YKHMJNNNYNKVJN-UHFFFAOYSA-O

> <PUBCHEM_XLOGP3>
3.4

> <PUBCHEM_EXACT_MASS>
315.103094

> <PUBCHEM_MOLECULAR_FORMULA>
C15H21Cl2N2O+

> <PUBCHEM_MOLECULAR_WEIGHT>
316.24604

> <PUBCHEM_OPENEYE_CAN_SMILES>
C1CCC[NH+](CC1)CCC(=O)NC2=C(C=CC(=C2)Cl)Cl

> <PUBCHEM_OPENEYE_ISO_SMILES>
C1CCC[NH+](CC1)CCC(=O)NC2=C(C=CC(=C2)Cl)Cl

> <PUBCHEM_CACTVS_TPSA>
33.5

> <PUBCHEM_MONOISOTOPIC_WEIGHT>
315.103094

> <PUBCHEM_TOTAL_CHARGE>
1

> <PUBCHEM_HEAVY_ATOM_COUNT>
20

> <PUBCHEM_ATOM_DEF_STEREO_COUNT>
0

> <PUBCHEM_ATOM_UDEF_STEREO_COUNT>
0

> <PUBCHEM_BOND_DEF_STEREO_COUNT>
0

> <PUBCHEM_BOND_UDEF_STEREO_COUNT>
0

> <PUBCHEM_ISOTOPIC_ATOM_COUNT>
0

> <PUBCHEM_COMPONENT_COUNT>
1

> <PUBCHEM_CACTVS_TAUTO_COUNT>
3

> <PUBCHEM_COORDINATE_TYPE>
1
5
255

> <PUBCHEM_BONDANNOTATIONS>
15  16  8
15  17  8
16  19  8
17  18  8
18  20  8
19  20  8

$$$$
40104968
  -OEChem-12041211572D

 47 49  0     0  0  0  0  0  0999 V2000
    2.7818    1.0780    0.0000 O   0  0  0  0  0  0  0  0  0  0  0  0
    2.7818   -1.9220    0.0000 N   0  3  0  0  0  0  0  0  0  0  0  0
    4.5139    1.0780    0.0000 N   0  0  0  0  0  0  0  0  0  0  0  0
    2.1583   -2.7038    0.0000 C   0  0  0  0  0  0  0  0  0  0  0  0
    3.7818   -1.9220    0.0000 C   0  0  0  0  0  0  0  0  0  0  0  0
    2.3809   -3.6788    0.0000 C   0  0  0  0  0  0  0  0  0  0  0  0
    4.4053   -2.7038    0.0000 C   0  0  0  0  0  0  0  0  0  0  0  0
    2.7818   -0.9220    0.0000 C   0  0  0  0  0  0  0  0  0  0  0  0
    3.2818   -4.1126    0.0000 C   0  0  0  0  0  0  0  0  0  0  0  0
    4.1828   -3.6788    0.0000 C   0  0  0  0  0  0  0  0  0  0  0  0
    3.6479   -0.4220    0.0000 C   0  0  0  0  0  0  0  0  0  0  0  0
    3.6479    0.5780    0.0000 C   0  0  0  0  0  0  0  0  0  0  0  0
    4.5139    2.0780    0.0000 C   0  0  0  0  0  0  0  0  0  0  0  0
    5.3799    2.5780    0.0000 C   0  0  0  0  0  0  0  0  0  0  0  0
    5.3799    3.5780    0.0000 C   0  0  0  0  0  0  0  0  0  0  0  0
    3.6479    2.5780    0.0000 C   0  0  0  0  0  0  0  0  0  0  0  0
    6.2739    2.0433    0.0000 C   0  0  0  0  0  0  0  0  0  0  0  0
    4.5139    4.0780    0.0000 C   0  0  0  0  0  0  0  0  0  0  0  0
    3.6479    3.5780    0.0000 C   0  0  0  0  0  0  0  0  0  0  0  0
    6.2739    4.1126    0.0000 C   0  0  0  0  0  0  0  0  0  0  0  0
    7.1799    2.5572    0.0000 C   0  0  0  0  0  0  0  0  0  0  0  0
    7.1799    3.5988    0.0000 C   0  0  0  0  0  0  0  0  0  0  0  0
    2.0000   -1.2985    0.0000 H   0  0  0  0  0  0  0  0  0  0  0  0
    4.3404   -1.6530    0.0000 H   0  0  0  0  0  0  0  0  0  0  0  0
    3.6439   -1.3176    0.0000 H   0  0  0  0  0  0  0  0  0  0  0  0
    1.7718   -2.2191    0.0000 H   0  0  0  0  0  0  0  0  0  0  0  0
    1.5997   -2.9729    0.0000 H   0  0  0  0  0  0  0  0  0  0  0  0
    4.9639   -2.9729    0.0000 H   0  0  0  0  0  0  0  0  0  0  0  0
    4.7919   -2.2191    0.0000 H   0  0  0  0  0  0  0  0  0  0  0  0
    1.7609   -3.6788    0.0000 H   0  0  0  0  0  0  0  0  0  0  0  0
    2.2429   -4.2832    0.0000 H   0  0  0  0  0  0  0  0  0  0  0  0
    2.5698   -0.3394    0.0000 H   0  0  0  0  0  0  0  0  0  0  0  0
    2.1712   -1.0297    0.0000 H   0  0  0  0  0  0  0  0  0  0  0  0
    4.3208   -4.2832    0.0000 H   0  0  0  0  0  0  0  0  0  0  0  0
    4.8028   -3.6788    0.0000 H   0  0  0  0  0  0  0  0  0  0  0  0
    2.8953   -4.5974    0.0000 H   0  0  0  0  0  0  0  0  0  0  0  0
    3.6684   -4.5974    0.0000 H   0  0  0  0  0  0  0  0  0  0  0  0
    3.8599   -1.0046    0.0000 H   0  0  0  0  0  0  0  0  0  0  0  0
    4.2584   -0.3143    0.0000 H   0  0  0  0  0  0  0  0  0  0  0  0
    5.0508    0.7680    0.0000 H   0  0  0  0  0  0  0  0  0  0  0  0
    3.1109    2.2680    0.0000 H   0  0  0  0  0  0  0  0  0  0  0  0
    6.2667    1.4234    0.0000 H   0  0  0  0  0  0  0  0  0  0  0  0
    4.5139    4.6980    0.0000 H   0  0  0  0  0  0  0  0  0  0  0  0
    3.1109    3.8880    0.0000 H   0  0  0  0  0  0  0  0  0  0  0  0
    6.2667    4.7326    0.0000 H   0  0  0  0  0  0  0  0  0  0  0  0
    7.7156    2.2451    0.0000 H   0  0  0  0  0  0  0  0  0  0  0  0
    7.7156    3.9109    0.0000 H   0  0  0  0  0  0  0  0  0  0  0  0
  1 12  2  0  0  0  0
  2  4  1  0  0  0  0
  2  5  1  0  0  0  0
  2  8  1  0  0  0  0
  2 23  1  0  0  0  0
  3 12  1  0  0  0  0
  3 13  1  0  0  0  0
  3 40  1  0  0  0  0
  4  6  1  0  0  0  0
  4 26  1  0  0  0  0
  4 27  1  0  0  0  0
  5  7  1  0  0  0  0
  5 24  1  0  0  0  0
  5 25  1  0  0  0  0
  6  9  1  0  0  0  0
  6 30  1  0  0  0  0
  6 31  1  0  0  0  0
  7 10  1  0  0  0  0
  7 28  1  0  0  0  0
  7 29  1  0  0  0  0
  8 11  1  0  0  0  0
  8 32  1  0  0  0  0
  8 33  1  0  0  0  0
  9 10  1  0  0  0  0
  9 36  1  0  0  0  0
  9 37  1  0  0  0  0
 10 34  1  0  0  0  0
 10 35  1  0  0  0  0
 11 12  1  0  0  0  0
 11 38  1  0  0  0  0
 11 39  1  0  0  0  0
 13 14  1  0  0  0  0
 13 16  2  0  0  0  0
 14 15  1  0  0  0  0
 14 17  2  0  0  0  0
 15 18  1  0  0  0  0
 15 20  2  0  0  0  0
 16 19  1  0  0  0  0
 16 41  1  0  0  0  0
 17 21  1  0  0  0  0
 17 42  1  0  0  0  0
 18 19  2  0  0  0  0
 18 43  1  0  0  0  0
 19 44  1  0  0  0  0
 20 22  1  0  0  0  0
 20 45  1  0  0  0  0
 21 22  2  0  0  0  0
 21 46  1  0  0  0  0
 22 47  1  0  0  0  0
M  CHG  1   2   1
M  END
> <PUBCHEM_COMPOUND_CID>
40104968

> <PUBCHEM_COMPOUND_CANONICALIZED>
1

> <PUBCHEM_CACTVS_COMPLEXITY>
349

> <PUBCHEM_CACTVS_HBOND_ACCEPTOR>
1

> <PUBCHEM_CACTVS_HBOND_DONOR>
2

> <PUBCHEM_CACTVS_ROTATABLE_BOND>
4

> <PUBCHEM_CACTVS_SUBSKEYS>
AAADceB7IAAAAAAAAAAAAAAAAAAAAAAAAAAwYAAABYAAAADBUAAAHgAQAAAADAjBmAQwwMPAAACIAiVSUACCAAAhAgAIiIEIZIgIICrA0ZGEIAhglADIyAcQgIAOgAAAQAASAAAAAACAACQAAAAAAAAAAA==

> <PUBCHEM_IUPAC_OPENEYE_NAME>
3-(azepan-1-ium-1-yl)-N-(1-naphthyl)propanamide

> <PUBCHEM_IUPAC_CAS_NAME>
3-(1-azepan-1-iumyl)-N-(1-naphthalenyl)propanamide

> <PUBCHEM_IUPAC_NAME>
3-(azepan-1-ium-1-yl)-N-naphthalen-1-ylpropanamide

> <PUBCHEM_IUPAC_SYSTEMATIC_NAME>
3-(azepan-1-ium-1-yl)-N-naphthalen-1-yl-propanamide

> <PUBCHEM_IUPAC_TRADITIONAL_NAME>
3-(azepan-1-ium-1-yl)-N-(1-naphthyl)propionamide

> <PUBCHEM_IUPAC_INCHI>
InChI=1S/C19H24N2O/c22-19(12-15-21-13-5-1-2-6-14-21)20-18-11-7-9-16-8-3-4-10-17(16)18/h3-4,7-11H,1-2,5-6,12-15H2,(H,20,22)/p+1

> <PUBCHEM_IUPAC_INCHIKEY>
FSQDWOXPUCKSBM-UHFFFAOYSA-O

> <PUBCHEM_XLOGP3>
2.8

> <PUBCHEM_EXACT_MASS>
297.196688

> <PUBCHEM_MOLECULAR_FORMULA>
C19H25N2O+

> <PUBCHEM_MOLECULAR_WEIGHT>
297.4146

> <PUBCHEM_OPENEYE_CAN_SMILES>
C1CCC[NH+](CC1)CCC(=O)NC2=CC=CC3=CC=CC=C32

> <PUBCHEM_OPENEYE_ISO_SMILES>
C1CCC[NH+](CC1)CCC(=O)NC2=CC=CC3=CC=CC=C32

> <PUBCHEM_CACTVS_TPSA>
33.5

> <PUBCHEM_MONOISOTOPIC_WEIGHT>
297.196688

> <PUBCHEM_TOTAL_CHARGE>
1

> <PUBCHEM_HEAVY_ATOM_COUNT>
22

> <PUBCHEM_ATOM_DEF_STEREO_COUNT>
0

> <PUBCHEM_ATOM_UDEF_STEREO_COUNT>
0

> <PUBCHEM_BOND_DEF_STEREO_COUNT>
0

> <PUBCHEM_BOND_UDEF_STEREO_COUNT>
0

> <PUBCHEM_ISOTOPIC_ATOM_COUNT>
0

> <PUBCHEM_COMPONENT_COUNT>
1

> <PUBCHEM_CACTVS_TAUTO_COUNT>
3

> <PUBCHEM_COORDINATE_TYPE>
1
5
255

> <PUBCHEM_BONDANNOTATIONS>
13  14  8
13  16  8
14  15  8
14  17  8
15  18  8
15  20  8
16  19  8
17  21  8
18  19  8
20  22  8
21  22  8

$$$$
40104991
  -OEChem-12041211572D

 41 43  0     0  0  0  0  0  0999 V2000
    2.9511    0.7521    0.0000 O   0  0  0  0  0  0  0  0  0  0  0  0
    2.9511   -2.2479    0.0000 N   0  3  0  0  0  0  0  0  0  0  0  0
    4.6831    0.7521    0.0000 N   0  0  0  0  0  0  0  0  0  0  0  0
    2.6420   -3.1990    0.0000 C   0  0  0  0  0  0  0  0  0  0  0  0
    3.9511   -2.2479    0.0000 C   0  0  0  0  0  0  0  0  0  0  0  0
    3.4511   -3.7868    0.0000 C   0  0  0  0  0  0  0  0  0  0  0  0
    4.2601   -3.1990    0.0000 C   0  0  0  0  0  0  0  0  0  0  0  0
    2.9511   -1.2479    0.0000 C   0  0  0  0  0  0  0  0  0  0  0  0
    3.8171   -0.7479    0.0000 C   0  0  0  0  0  0  0  0  0  0  0  0
    3.8171    0.2521    0.0000 C   0  0  0  0  0  0  0  0  0  0  0  0
    4.6831    1.7521    0.0000 C   0  0  0  0  0  0  0  0  0  0  0  0
    5.5491    2.2521    0.0000 C   0  0  0  0  0  0  0  0  0  0  0  0
    5.5491    3.2521    0.0000 C   0  0  0  0  0  0  0  0  0  0  0  0
    3.8171    2.2521    0.0000 C   0  0  0  0  0  0  0  0  0  0  0  0
    6.4431    1.7174    0.0000 C   0  0  0  0  0  0  0  0  0  0  0  0
    4.6831    3.7521    0.0000 C   0  0  0  0  0  0  0  0  0  0  0  0
    3.8171    3.2521    0.0000 C   0  0  0  0  0  0  0  0  0  0  0  0
    6.4431    3.7868    0.0000 C   0  0  0  0  0  0  0  0  0  0  0  0
    7.3491    2.2313    0.0000 C   0  0  0  0  0  0  0  0  0  0  0  0
    7.3491    3.2729    0.0000 C   0  0  0  0  0  0  0  0  0  0  0  0
    2.0000   -1.9389    0.0000 H   0  0  0  0  0  0  0  0  0  0  0  0
    2.0756   -2.9468    0.0000 H   0  0  0  0  0  0  0  0  0  0  0  0
    2.3320   -3.7359    0.0000 H   0  0  0  0  0  0  0  0  0  0  0  0
    4.5575   -2.1190    0.0000 H   0  0  0  0  0  0  0  0  0  0  0  0
    3.8862   -1.6313    0.0000 H   0  0  0  0  0  0  0  0  0  0  0  0
    3.0362   -4.2475    0.0000 H   0  0  0  0  0  0  0  0  0  0  0  0
    3.8659   -4.2475    0.0000 H   0  0  0  0  0  0  0  0  0  0  0  0
    4.5701   -3.7359    0.0000 H   0  0  0  0  0  0  0  0  0  0  0  0
    4.8265   -2.9468    0.0000 H   0  0  0  0  0  0  0  0  0  0  0  0
    2.7390   -0.6653    0.0000 H   0  0  0  0  0  0  0  0  0  0  0  0
    2.3405   -1.3556    0.0000 H   0  0  0  0  0  0  0  0  0  0  0  0
    4.0291   -1.3305    0.0000 H   0  0  0  0  0  0  0  0  0  0  0  0
    4.4277   -0.6402    0.0000 H   0  0  0  0  0  0  0  0  0  0  0  0
    5.2200    0.4421    0.0000 H   0  0  0  0  0  0  0  0  0  0  0  0
    3.2802    1.9421    0.0000 H   0  0  0  0  0  0  0  0  0  0  0  0
    6.4359    1.0975    0.0000 H   0  0  0  0  0  0  0  0  0  0  0  0
    4.6831    4.3721    0.0000 H   0  0  0  0  0  0  0  0  0  0  0  0
    3.2802    3.5621    0.0000 H   0  0  0  0  0  0  0  0  0  0  0  0
    6.4359    4.4067    0.0000 H   0  0  0  0  0  0  0  0  0  0  0  0
    7.8849    1.9192    0.0000 H   0  0  0  0  0  0  0  0  0  0  0  0
    7.8849    3.5850    0.0000 H   0  0  0  0  0  0  0  0  0  0  0  0
  1 10  2  0  0  0  0
  2  4  1  0  0  0  0
  2  5  1  0  0  0  0
  2  8  1  0  0  0  0
  2 21  1  0  0  0  0
  3 10  1  0  0  0  0
  3 11  1  0  0  0  0
  3 34  1  0  0  0  0
  4  6  1  0  0  0  0
  4 22  1  0  0  0  0
  4 23  1  0  0  0  0
  5  7  1  0  0  0  0
  5 24  1  0  0  0  0
  5 25  1  0  0  0  0
  6  7  1  0  0  0  0
  6 26  1  0  0  0  0
  6 27  1  0  0  0  0
  7 28  1  0  0  0  0
  7 29  1  0  0  0  0
  8  9  1  0  0  0  0
  8 30  1  0  0  0  0
  8 31  1  0  0  0  0
  9 10  1  0  0  0  0
  9 32  1  0  0  0  0
  9 33  1  0  0  0  0
 11 12  1  0  0  0  0
 11 14  2  0  0  0  0
 12 13  1  0  0  0  0
 12 15  2  0  0  0  0
 13 16  1  0  0  0  0
 13 18  2  0  0  0  0
 14 17  1  0  0  0  0
 14 35  1  0  0  0  0
 15 19  1  0  0  0  0
 15 36  1  0  0  0  0
 16 17  2  0  0  0  0
 16 37  1  0  0  0  0
 17 38  1  0  0  0  0
 18 20  1  0  0  0  0
 18 39  1  0  0  0  0
 19 20  2  0  0  0  0
 19 40  1  0  0  0  0
 20 41  1  0  0  0  0
M  CHG  1   2   1
M  END
> <PUBCHEM_COMPOUND_CID>
40104991

> <PUBCHEM_COMPOUND_CANONICALIZED>
1

> <PUBCHEM_CACTVS_COMPLEXITY>
325

> <PUBCHEM_CACTVS_HBOND_ACCEPTOR>
1

> <PUBCHEM_CACTVS_HBOND_DONOR>
2

> <PUBCHEM_CACTVS_ROTATABLE_BOND>
4

> <PUBCHEM_CACTVS_SUBSKEYS>
AAADceB7IAAAAAAAAAAAAAAAAAAAAWAAAAAwYAAAAAAAAADBUAAAHgAQAAAADAjBmAQwwMPAAACIAiVSUACCAAAhAgAIiIEIZIgIICrA0ZGEIAhglADIyAcQgIAOgAAAQAASAAAAAACAACQAAAAAAAAAAA==

> <PUBCHEM_IUPAC_OPENEYE_NAME>
N-(1-naphthyl)-3-pyrrolidin-1-ium-1-yl-propanamide

> <PUBCHEM_IUPAC_CAS_NAME>
N-(1-naphthalenyl)-3-(1-pyrrolidin-1-iumyl)propanamide

> <PUBCHEM_IUPAC_NAME>
N-naphthalen-1-yl-3-pyrrolidin-1-ium-1-ylpropanamide

> <PUBCHEM_IUPAC_SYSTEMATIC_NAME>
N-naphthalen-1-yl-3-pyrrolidin-1-ium-1-yl-propanamide

> <PUBCHEM_IUPAC_TRADITIONAL_NAME>
N-(1-naphthyl)-3-pyrrolidin-1-ium-1-yl-propionamide

> <PUBCHEM_IUPAC_INCHI>
InChI=1S/C17H20N2O/c20-17(10-13-19-11-3-4-12-19)18-16-9-5-7-14-6-1-2-8-15(14)16/h1-2,5-9H,3-4,10-13H2,(H,18,20)/p+1

> <PUBCHEM_IUPAC_INCHIKEY>
LGURCYMHMVBQRN-UHFFFAOYSA-O

> <PUBCHEM_XLOGP3>
2.1

> <PUBCHEM_EXACT_MASS>
269.165388

> <PUBCHEM_MOLECULAR_FORMULA>
C17H21N2O+

> <PUBCHEM_MOLECULAR_WEIGHT>
269.36144

> <PUBCHEM_OPENEYE_CAN_SMILES>
C1CC[NH+](C1)CCC(=O)NC2=CC=CC3=CC=CC=C32

> <PUBCHEM_OPENEYE_ISO_SMILES>
C1CC[NH+](C1)CCC(=O)NC2=CC=CC3=CC=CC=C32

> <PUBCHEM_CACTVS_TPSA>
33.5

> <PUBCHEM_MONOISOTOPIC_WEIGHT>
269.165388

> <PUBCHEM_TOTAL_CHARGE>
1

> <PUBCHEM_HEAVY_ATOM_COUNT>
20

> <PUBCHEM_ATOM_DEF_STEREO_COUNT>
0

> <PUBCHEM_ATOM_UDEF_STEREO_COUNT>
0

> <PUBCHEM_BOND_DEF_STEREO_COUNT>
0

> <PUBCHEM_BOND_UDEF_STEREO_COUNT>
0

> <PUBCHEM_ISOTOPIC_ATOM_COUNT>
0

> <PUBCHEM_COMPONENT_COUNT>
1

> <PUBCHEM_CACTVS_TAUTO_COUNT>
3

> <PUBCHEM_COORDINATE_TYPE>
1
5
255

> <PUBCHEM_BONDANNOTATIONS>
11  12  8
11  14  8
12  13  8
12  15  8
13  16  8
13  18  8
14  17  8
15  19  8
16  17  8
18  20  8
19  20  8

$$$$
