56530276
  -OEChem-11301218112D

 36 37  0     1  0  0  0  0  0999 V2000
    8.9282   -2.2694    0.0000 Cl  0  0  0  0  0  0  0  0  0  0  0  0
    4.5981   -1.7694    0.0000 O   0  0  0  0  0  0  0  0  0  0  0  0
    5.4641   -0.2694    0.0000 N   0  0  0  0  0  0  0  0  0  0  0  0
    7.1962    0.7306    0.0000 N   0  0  0  0  0  0  0  0  0  0  0  0
    3.7320   -0.2694    0.0000 C   0  0  3  0  0  0  0  0  0  0  0  0
    2.8660   -0.7694    0.0000 C   0  0  0  0  0  0  0  0  0  0  0  0
    4.5981   -0.7694    0.0000 C   0  0  0  0  0  0  0  0  0  0  0  0
    3.7320    0.7306    0.0000 C   0  0  0  0  0  0  0  0  0  0  0  0
    6.3301   -0.7694    0.0000 C   0  0  0  0  0  0  0  0  0  0  0  0
    7.1962   -0.2694    0.0000 C   0  0  0  0  0  0  0  0  0  0  0  0
    2.0000   -0.2694    0.0000 C   0  0  0  0  0  0  0  0  0  0  0  0
    6.3301   -1.7694    0.0000 C   0  0  0  0  0  0  0  0  0  0  0  0
    8.0622   -0.7694    0.0000 C   0  0  0  0  0  0  0  0  0  0  0  0
    8.0052    1.3184    0.0000 C   0  0  0  0  0  0  0  0  0  0  0  0
    6.3871    1.3184    0.0000 C   0  0  0  0  0  0  0  0  0  0  0  0
    7.1962   -2.2694    0.0000 C   0  0  0  0  0  0  0  0  0  0  0  0
    8.0622   -1.7694    0.0000 C   0  0  0  0  0  0  0  0  0  0  0  0
    7.6962    2.2694    0.0000 C   0  0  0  0  0  0  0  0  0  0  0  0
    6.6962    2.2694    0.0000 C   0  0  0  0  0  0  0  0  0  0  0  0
    4.2690    0.0406    0.0000 H   0  0  0  0  0  0  0  0  0  0  0  0
    2.4675   -1.2444    0.0000 H   0  0  0  0  0  0  0  0  0  0  0  0
    3.2646   -1.2444    0.0000 H   0  0  0  0  0  0  0  0  0  0  0  0
    4.3520    0.7306    0.0000 H   0  0  0  0  0  0  0  0  0  0  0  0
    3.7320    1.3506    0.0000 H   0  0  0  0  0  0  0  0  0  0  0  0
    3.1120    0.7306    0.0000 H   0  0  0  0  0  0  0  0  0  0  0  0
    5.4641    0.3506    0.0000 H   0  0  0  0  0  0  0  0  0  0  0  0
    2.3100    0.2675    0.0000 H   0  0  0  0  0  0  0  0  0  0  0  0
    1.4631    0.0406    0.0000 H   0  0  0  0  0  0  0  0  0  0  0  0
    1.6900   -0.8064    0.0000 H   0  0  0  0  0  0  0  0  0  0  0  0
    5.7932   -2.0794    0.0000 H   0  0  0  0  0  0  0  0  0  0  0  0
    8.5991   -0.4594    0.0000 H   0  0  0  0  0  0  0  0  0  0  0  0
    5.7975    1.1268    0.0000 H   0  0  0  0  0  0  0  0  0  0  0  0
    8.5948    1.1268    0.0000 H   0  0  0  0  0  0  0  0  0  0  0  0
    7.1962   -2.8894    0.0000 H   0  0  0  0  0  0  0  0  0  0  0  0
    6.3317    2.7710    0.0000 H   0  0  0  0  0  0  0  0  0  0  0  0
    8.0606    2.7710    0.0000 H   0  0  0  0  0  0  0  0  0  0  0  0
  1 17  1  0  0  0  0
  2  7  2  0  0  0  0
  3  7  1  0  0  0  0
  3  9  1  0  0  0  0
  3 26  1  0  0  0  0
  4 10  1  0  0  0  0
  4 14  1  0  0  0  0
  4 15  1  0  0  0  0
  5  6  1  0  0  0  0
  5  7  1  0  0  0  0
  5  8  1  0  0  0  0
  5 20  1  0  0  0  0
  6 11  1  0  0  0  0
  6 21  1  0  0  0  0
  6 22  1  0  0  0  0
  8 23  1  0  0  0  0
  8 24  1  0  0  0  0
  8 25  1  0  0  0  0
  9 10  2  0  0  0  0
  9 12  1  0  0  0  0
 10 13  1  0  0  0  0
 11 27  1  0  0  0  0
 11 28  1  0  0  0  0
 11 29  1  0  0  0  0
 12 16  2  0  0  0  0
 12 30  1  0  0  0  0
 13 17  2  0  0  0  0
 13 31  1  0  0  0  0
 14 18  2  0  0  0  0
 14 33  1  0  0  0  0
 15 19  2  0  0  0  0
 15 32  1  0  0  0  0
 16 17  1  0  0  0  0
 16 34  1  0  0  0  0
 18 19  1  0  0  0  0
 18 36  1  0  0  0  0
 19 35  1  0  0  0  0
M  END
> <PUBCHEM_COMPOUND_CID>
56530276

> <PUBCHEM_COMPOUND_CANONICALIZED>
1

> <PUBCHEM_CACTVS_COMPLEXITY>
305

> <PUBCHEM_CACTVS_HBOND_ACCEPTOR>
1

> <PUBCHEM_CACTVS_HBOND_DONOR>
1

> <PUBCHEM_CACTVS_ROTATABLE_BOND>
4

> <PUBCHEM_CACTVS_SUBSKEYS>
AAADceBzIAAEAAAAAAAAAAAAAAAAAWAAAAAwAAAAAAAAAAABwAAAHgIQAAAADQrBkiQ+wJPMEACoADV3VACCgCAxByAI2CE4dpgIYPLBk5GUIAhglADIyAcQAAAIAABAAAIAACAAAIAABAAAQAAAAAAAAA==

> <PUBCHEM_IUPAC_OPENEYE_NAME>
N-(4-chloro-2-pyrrol-1-yl-phenyl)-2-methyl-butanamide

> <PUBCHEM_IUPAC_CAS_NAME>
N-[4-chloro-2-(1-pyrrolyl)phenyl]-2-methylbutanamide

> <PUBCHEM_IUPAC_NAME>
N-(4-chloro-2-pyrrol-1-ylphenyl)-2-methylbutanamide

> <PUBCHEM_IUPAC_SYSTEMATIC_NAME>
N-(4-chloranyl-2-pyrrol-1-yl-phenyl)-2-methyl-butanamide

> <PUBCHEM_IUPAC_TRADITIONAL_NAME>
N-(4-chloro-2-pyrrol-1-yl-phenyl)-2-methyl-butyramide

> <PUBCHEM_IUPAC_INCHI>
InChI=1S/C15H17ClN2O/c1-3-11(2)15(19)17-13-7-6-12(16)10-14(13)18-8-4-5-9-18/h4-11H,3H2,1-2H3,(H,17,19)

> <PUBCHEM_IUPAC_INCHIKEY>
VFHWRQGZNBTKJS-UHFFFAOYSA-N

> <PUBCHEM_XLOGP3>
3.9

> <PUBCHEM_EXACT_MASS>
276.102941

> <PUBCHEM_MOLECULAR_FORMULA>
C15H17ClN2O

> <PUBCHEM_MOLECULAR_WEIGHT>
276.76128

> <PUBCHEM_OPENEYE_CAN_SMILES>
CCC(C)C(=O)NC1=C(C=C(C=C1)Cl)N2C=CC=C2

> <PUBCHEM_OPENEYE_ISO_SMILES>
CCC(C)C(=O)NC1=C(C=C(C=C1)Cl)N2C=CC=C2

> <PUBCHEM_CACTVS_TPSA>
34

> <PUBCHEM_MONOISOTOPIC_WEIGHT>
276.102941

> <PUBCHEM_TOTAL_CHARGE>
0

> <PUBCHEM_HEAVY_ATOM_COUNT>
19

> <PUBCHEM_ATOM_DEF_STEREO_COUNT>
0

> <PUBCHEM_ATOM_UDEF_STEREO_COUNT>
1

> <PUBCHEM_BOND_DEF_STEREO_COUNT>
0

> <PUBCHEM_BOND_UDEF_STEREO_COUNT>
0

> <PUBCHEM_ISOTOPIC_ATOM_COUNT>
0

> <PUBCHEM_COMPONENT_COUNT>
1

> <PUBCHEM_CACTVS_TAUTO_COUNT>
3

> <PUBCHEM_COORDINATE_TYPE>
1
5
255

> <PUBCHEM_BONDANNOTATIONS>
10  13  8
12  16  8
13  17  8
14  18  8
15  19  8
16  17  8
18  19  8
4  14  8
4  15  8
5  8  3
9  10  8
9  12  8

$$$$
56530474
  -OEChem-11301218112D

 37 37  0     0  0  0  0  0  0999 V2000
    2.0000   -0.5000    0.0000 Cl  0  0  0  0  0  0  0  0  0  0  0  0
    3.7320   -3.5000    0.0000 Cl  0  0  0  0  0  0  0  0  0  0  0  0
    5.4641    0.5000    0.0000 O   0  0  0  0  0  0  0  0  0  0  0  0
    4.5981    2.0000    0.0000 N   0  0  0  0  0  0  0  0  0  0  0  0
    5.4641    2.5000    0.0000 C   0  0  0  0  0  0  0  0  0  0  0  0
    3.7320    2.5000    0.0000 C   0  0  0  0  0  0  0  0  0  0  0  0
    4.5981    1.0000    0.0000 C   0  0  0  0  0  0  0  0  0  0  0  0
    3.7320    3.5000    0.0000 C   0  0  0  0  0  0  0  0  0  0  0  0
    2.8660    2.0000    0.0000 C   0  0  0  0  0  0  0  0  0  0  0  0
    5.4641    3.5000    0.0000 C   0  0  0  0  0  0  0  0  0  0  0  0
    6.3301    2.0000    0.0000 C   0  0  0  0  0  0  0  0  0  0  0  0
    3.7320    0.5000    0.0000 C   0  0  0  0  0  0  0  0  0  0  0  0
    3.7320   -0.5000    0.0000 C   0  0  0  0  0  0  0  0  0  0  0  0
    2.8660   -1.0000    0.0000 C   0  0  0  0  0  0  0  0  0  0  0  0
    4.5981   -1.0000    0.0000 C   0  0  0  0  0  0  0  0  0  0  0  0
    2.8660   -2.0000    0.0000 C   0  0  0  0  0  0  0  0  0  0  0  0
    4.5981   -2.0000    0.0000 C   0  0  0  0  0  0  0  0  0  0  0  0
    3.7320   -2.5000    0.0000 C   0  0  0  0  0  0  0  0  0  0  0  0
    5.4641    1.8800    0.0000 H   0  0  0  0  0  0  0  0  0  0  0  0
    3.7320    1.8800    0.0000 H   0  0  0  0  0  0  0  0  0  0  0  0
    4.3520    3.5000    0.0000 H   0  0  0  0  0  0  0  0  0  0  0  0
    3.7320    4.1200    0.0000 H   0  0  0  0  0  0  0  0  0  0  0  0
    6.0201    1.4631    0.0000 H   0  0  0  0  0  0  0  0  0  0  0  0
    6.8671    1.6900    0.0000 H   0  0  0  0  0  0  0  0  0  0  0  0
    6.6401    2.5369    0.0000 H   0  0  0  0  0  0  0  0  0  0  0  0
    6.0841    3.5000    0.0000 H   0  0  0  0  0  0  0  0  0  0  0  0
    5.4641    4.1200    0.0000 H   0  0  0  0  0  0  0  0  0  0  0  0
    4.8441    3.5000    0.0000 H   0  0  0  0  0  0  0  0  0  0  0  0
    2.5560    2.5369    0.0000 H   0  0  0  0  0  0  0  0  0  0  0  0
    2.3291    1.6900    0.0000 H   0  0  0  0  0  0  0  0  0  0  0  0
    3.1760    1.4631    0.0000 H   0  0  0  0  0  0  0  0  0  0  0  0
    3.1120    3.5000    0.0000 H   0  0  0  0  0  0  0  0  0  0  0  0
    3.5200    1.0826    0.0000 H   0  0  0  0  0  0  0  0  0  0  0  0
    3.1215    0.3923    0.0000 H   0  0  0  0  0  0  0  0  0  0  0  0
    5.1350   -0.6900    0.0000 H   0  0  0  0  0  0  0  0  0  0  0  0
    2.3291   -2.3100    0.0000 H   0  0  0  0  0  0  0  0  0  0  0  0
    5.1350   -2.3100    0.0000 H   0  0  0  0  0  0  0  0  0  0  0  0
  1 14  1  0  0  0  0
  2 18  1  0  0  0  0
  3  7  2  0  0  0  0
  4  5  1  0  0  0  0
  4  6  1  0  0  0  0
  4  7  1  0  0  0  0
  5 10  1  0  0  0  0
  5 11  1  0  0  0  0
  5 19  1  0  0  0  0
  6  8  1  0  0  0  0
  6  9  1  0  0  0  0
  6 20  1  0  0  0  0
  7 12  1  0  0  0  0
  8 21  1  0  0  0  0
  8 22  1  0  0  0  0
  8 32  1  0  0  0  0
  9 29  1  0  0  0  0
  9 30  1  0  0  0  0
  9 31  1  0  0  0  0
 10 26  1  0  0  0  0
 10 27  1  0  0  0  0
 10 28  1  0  0  0  0
 11 23  1  0  0  0  0
 11 24  1  0  0  0  0
 11 25  1  0  0  0  0
 12 13  1  0  0  0  0
 12 33  1  0  0  0  0
 12 34  1  0  0  0  0
 13 14  2  0  0  0  0
 13 15  1  0  0  0  0
 14 16  1  0  0  0  0
 15 17  2  0  0  0  0
 15 35  1  0  0  0  0
 16 18  2  0  0  0  0
 16 36  1  0  0  0  0
 17 18  1  0  0  0  0
 17 37  1  0  0  0  0
M  END
> <PUBCHEM_COMPOUND_CID>
56530474

> <PUBCHEM_COMPOUND_CANONICALIZED>
1

> <PUBCHEM_CACTVS_COMPLEXITY>
273

> <PUBCHEM_CACTVS_HBOND_ACCEPTOR>
1

> <PUBCHEM_CACTVS_HBOND_DONOR>
0

> <PUBCHEM_CACTVS_ROTATABLE_BOND>
4

> <PUBCHEM_CACTVS_SUBSKEYS>
AAADceByIAAGAAAAAAAAAAAAAAAAAAAAAAAwAAAAAAAAAAABAAAAHgIAAAAADCrBmCQyAIMAAACIAiFSEAACAAAgBQAIiAEIAogIIDKBlxGEIAAghgCIiAcYiICOBAAAAACBAAAIAAAAAQIAAAAAAAAAAA==

> <PUBCHEM_IUPAC_OPENEYE_NAME>
2-(2,4-dichlorophenyl)-N,N-diisopropyl-acetamide

> <PUBCHEM_IUPAC_CAS_NAME>
2-(2,4-dichlorophenyl)-N,N-di(propan-2-yl)acetamide

> <PUBCHEM_IUPAC_NAME>
2-(2,4-dichlorophenyl)-N,N-di(propan-2-yl)acetamide

> <PUBCHEM_IUPAC_SYSTEMATIC_NAME>
2-(2,4-dichlorophenyl)-N,N-di(propan-2-yl)ethanamide

> <PUBCHEM_IUPAC_TRADITIONAL_NAME>
2-(2,4-dichlorophenyl)-N,N-diisopropyl-acetamide

> <PUBCHEM_IUPAC_INCHI>
InChI=1S/C14H19Cl2NO/c1-9(2)17(10(3)4)14(18)7-11-5-6-12(15)8-13(11)16/h5-6,8-10H,7H2,1-4H3

> <PUBCHEM_IUPAC_INCHIKEY>
JLGSEHGWXIHDCC-UHFFFAOYSA-N

> <PUBCHEM_XLOGP3>
4.4

> <PUBCHEM_EXACT_MASS>
287.08437

> <PUBCHEM_MOLECULAR_FORMULA>
C14H19Cl2NO

> <PUBCHEM_MOLECULAR_WEIGHT>
288.21276

> <PUBCHEM_OPENEYE_CAN_SMILES>
CC(C)N(C(C)C)C(=O)CC1=C(C=C(C=C1)Cl)Cl

> <PUBCHEM_OPENEYE_ISO_SMILES>
CC(C)N(C(C)C)C(=O)CC1=C(C=C(C=C1)Cl)Cl

> <PUBCHEM_CACTVS_TPSA>
20.3

> <PUBCHEM_MONOISOTOPIC_WEIGHT>
287.08437

> <PUBCHEM_TOTAL_CHARGE>
0

> <PUBCHEM_HEAVY_ATOM_COUNT>
18

> <PUBCHEM_ATOM_DEF_STEREO_COUNT>
0

> <PUBCHEM_ATOM_UDEF_STEREO_COUNT>
0

> <PUBCHEM_BOND_DEF_STEREO_COUNT>
0

> <PUBCHEM_BOND_UDEF_STEREO_COUNT>
0

> <PUBCHEM_ISOTOPIC_ATOM_COUNT>
0

> <PUBCHEM_COMPONENT_COUNT>
1

> <PUBCHEM_CACTVS_TAUTO_COUNT>
1

> <PUBCHEM_COORDINATE_TYPE>
1
5
255

> <PUBCHEM_BONDANNOTATIONS>
13  14  8
13  15  8
14  16  8
15  17  8
16  18  8
17  18  8

$$$$
56530644
  -OEChem-11301218112D

 34 36  0     0  0  0  0  0  0999 V2000
    8.9282   -2.2694    0.0000 Cl  0  0  0  0  0  0  0  0  0  0  0  0
    4.5981   -1.7694    0.0000 O   0  0  0  0  0  0  0  0  0  0  0  0
    7.1962    0.7306    0.0000 N   0  0  0  0  0  0  0  0  0  0  0  0
    5.4641   -0.2694    0.0000 N   0  0  0  0  0  0  0  0  0  0  0  0
    7.1962   -0.2694    0.0000 C   0  0  0  0  0  0  0  0  0  0  0  0
    6.3301   -0.7694    0.0000 C   0  0  0  0  0  0  0  0  0  0  0  0
    8.0622   -0.7694    0.0000 C   0  0  0  0  0  0  0  0  0  0  0  0
    6.3301   -1.7694    0.0000 C   0  0  0  0  0  0  0  0  0  0  0  0
    8.0052    1.3184    0.0000 C   0  0  0  0  0  0  0  0  0  0  0  0
    6.3871    1.3184    0.0000 C   0  0  0  0  0  0  0  0  0  0  0  0
    8.0622   -1.7694    0.0000 C   0  0  0  0  0  0  0  0  0  0  0  0
    7.1962   -2.2694    0.0000 C   0  0  0  0  0  0  0  0  0  0  0  0
    4.5981   -0.7694    0.0000 C   0  0  0  0  0  0  0  0  0  0  0  0
    7.6962    2.2694    0.0000 C   0  0  0  0  0  0  0  0  0  0  0  0
    6.6962    2.2694    0.0000 C   0  0  0  0  0  0  0  0  0  0  0  0
    3.7320   -0.2694    0.0000 C   0  0  0  0  0  0  0  0  0  0  0  0
    2.8660   -0.7694    0.0000 C   0  0  0  0  0  0  0  0  0  0  0  0
    3.7320    0.7306    0.0000 C   0  0  0  0  0  0  0  0  0  0  0  0
    2.0000   -0.2694    0.0000 C   0  0  0  0  0  0  0  0  0  0  0  0
    2.8660    1.2306    0.0000 C   0  0  0  0  0  0  0  0  0  0  0  0
    2.0000    0.7306    0.0000 C   0  0  0  0  0  0  0  0  0  0  0  0
    8.5991   -0.4594    0.0000 H   0  0  0  0  0  0  0  0  0  0  0  0
    5.7932   -2.0794    0.0000 H   0  0  0  0  0  0  0  0  0  0  0  0
    5.4641    0.3506    0.0000 H   0  0  0  0  0  0  0  0  0  0  0  0
    5.7975    1.1268    0.0000 H   0  0  0  0  0  0  0  0  0  0  0  0
    8.5948    1.1268    0.0000 H   0  0  0  0  0  0  0  0  0  0  0  0
    7.1962   -2.8894    0.0000 H   0  0  0  0  0  0  0  0  0  0  0  0
    6.3317    2.7710    0.0000 H   0  0  0  0  0  0  0  0  0  0  0  0
    8.0606    2.7710    0.0000 H   0  0  0  0  0  0  0  0  0  0  0  0
    2.8660   -1.3894    0.0000 H   0  0  0  0  0  0  0  0  0  0  0  0
    4.2690    1.0406    0.0000 H   0  0  0  0  0  0  0  0  0  0  0  0
    1.4631   -0.5794    0.0000 H   0  0  0  0  0  0  0  0  0  0  0  0
    2.8660    1.8506    0.0000 H   0  0  0  0  0  0  0  0  0  0  0  0
    1.4631    1.0406    0.0000 H   0  0  0  0  0  0  0  0  0  0  0  0
  1 11  1  0  0  0  0
  2 13  2  0  0  0  0
  3  5  1  0  0  0  0
  3  9  1  0  0  0  0
  3 10  1  0  0  0  0
  4  6  1  0  0  0  0
  4 13  1  0  0  0  0
  4 24  1  0  0  0  0
  5  6  2  0  0  0  0
  5  7  1  0  0  0  0
  6  8  1  0  0  0  0
  7 11  2  0  0  0  0
  7 22  1  0  0  0  0
  8 12  2  0  0  0  0
  8 23  1  0  0  0  0
  9 14  2  0  0  0  0
  9 26  1  0  0  0  0
 10 15  2  0  0  0  0
 10 25  1  0  0  0  0
 11 12  1  0  0  0  0
 12 27  1  0  0  0  0
 13 16  1  0  0  0  0
 14 15  1  0  0  0  0
 14 29  1  0  0  0  0
 15 28  1  0  0  0  0
 16 17  2  0  0  0  0
 16 18  1  0  0  0  0
 17 19  1  0  0  0  0
 17 30  1  0  0  0  0
 18 20  2  0  0  0  0
 18 31  1  0  0  0  0
 19 21  2  0  0  0  0
 19 32  1  0  0  0  0
 20 21  1  0  0  0  0
 20 33  1  0  0  0  0
 21 34  1  0  0  0  0
M  END
> <PUBCHEM_COMPOUND_CID>
56530644

> <PUBCHEM_COMPOUND_CANONICALIZED>
1

> <PUBCHEM_CACTVS_COMPLEXITY>
351

> <PUBCHEM_CACTVS_HBOND_ACCEPTOR>
1

> <PUBCHEM_CACTVS_HBOND_DONOR>
1

> <PUBCHEM_CACTVS_ROTATABLE_BOND>
3

> <PUBCHEM_CACTVS_SUBSKEYS>
AAADccB7IAAEAAAAAAAAAAAAAAAAAWAAAAAwYAAAAAAAAAAB0AAAHgIQAAAADArBmiQ8wJPMEACoAjV3VACCgCA1ByAI2CE4dtgIYPLBl5GUIQhglADIyYcYiACOAABAAAIAACAAAIAABAAAQAAAAAAAAA==

> <PUBCHEM_IUPAC_OPENEYE_NAME>
N-(4-chloro-2-pyrrol-1-yl-phenyl)benzamide

> <PUBCHEM_IUPAC_CAS_NAME>
N-[4-chloro-2-(1-pyrrolyl)phenyl]benzamide

> <PUBCHEM_IUPAC_NAME>
N-(4-chloro-2-pyrrol-1-ylphenyl)benzamide

> <PUBCHEM_IUPAC_SYSTEMATIC_NAME>
N-(4-chloranyl-2-pyrrol-1-yl-phenyl)benzamide

> <PUBCHEM_IUPAC_TRADITIONAL_NAME>
N-(4-chloro-2-pyrrol-1-yl-phenyl)benzamide

> <PUBCHEM_IUPAC_INCHI>
InChI=1S/C17H13ClN2O/c18-14-8-9-15(16(12-14)20-10-4-5-11-20)19-17(21)13-6-2-1-3-7-13/h1-12H,(H,19,21)

> <PUBCHEM_IUPAC_INCHIKEY>
YLNCAJOWCSGGMT-UHFFFAOYSA-N

> <PUBCHEM_XLOGP3>
4.2

> <PUBCHEM_EXACT_MASS>
296.071641

> <PUBCHEM_MOLECULAR_FORMULA>
C17H13ClN2O

> <PUBCHEM_MOLECULAR_WEIGHT>
296.75092

> <PUBCHEM_OPENEYE_CAN_SMILES>
C1=CC=C(C=C1)C(=O)NC2=C(C=C(C=C2)Cl)N3C=CC=C3

> <PUBCHEM_OPENEYE_ISO_SMILES>
C1=CC=C(C=C1)C(=O)NC2=C(C=C(C=C2)Cl)N3C=CC=C3

> <PUBCHEM_CACTVS_TPSA>
34

> <PUBCHEM_MONOISOTOPIC_WEIGHT>
296.071641

> <PUBCHEM_TOTAL_CHARGE>
0

> <PUBCHEM_HEAVY_ATOM_COUNT>
21

> <PUBCHEM_ATOM_DEF_STEREO_COUNT>
0

> <PUBCHEM_ATOM_UDEF_STEREO_COUNT>
0

> <PUBCHEM_BOND_DEF_STEREO_COUNT>
0

> <PUBCHEM_BOND_UDEF_STEREO_COUNT>
0

> <PUBCHEM_ISOTOPIC_ATOM_COUNT>
0

> <PUBCHEM_COMPONENT_COUNT>
1

> <PUBCHEM_CACTVS_TAUTO_COUNT>
2

> <PUBCHEM_COORDINATE_TYPE>
1
5
255

> <PUBCHEM_BONDANNOTATIONS>
10  15  8
11  12  8
14  15  8
16  17  8
16  18  8
17  19  8
18  20  8
19  21  8
20  21  8
3  10  8
3  9  8
5  6  8
5  7  8
6  8  8
7  11  8
8  12  8
9  14  8

$$$$
56530725
  -OEChem-11301218112D

 37 39  0     0  0  0  0  0  0999 V2000
    8.7788   -2.2694    0.0000 Cl  0  0  0  0  0  0  0  0  0  0  0  0
    4.4487   -1.7694    0.0000 O   0  0  0  0  0  0  0  0  0  0  0  0
    5.3147   -0.2694    0.0000 N   0  0  0  0  0  0  0  0  0  0  0  0
    7.0468    0.7306    0.0000 N   0  0  0  0  0  0  0  0  0  0  0  0
    3.5827   -0.2694    0.0000 C   0  0  0  0  0  0  0  0  0  0  0  0
    3.4782    0.7251    0.0000 C   0  0  0  0  0  0  0  0  0  0  0  0
    2.6691   -0.6762    0.0000 C   0  0  0  0  0  0  0  0  0  0  0  0
    2.5000    0.9330    0.0000 C   0  0  0  0  0  0  0  0  0  0  0  0
    2.0000    0.0670    0.0000 C   0  0  0  0  0  0  0  0  0  0  0  0
    4.4487   -0.7694    0.0000 C   0  0  0  0  0  0  0  0  0  0  0  0
    6.1808   -0.7694    0.0000 C   0  0  0  0  0  0  0  0  0  0  0  0
    7.0468   -0.2694    0.0000 C   0  0  0  0  0  0  0  0  0  0  0  0
    6.1808   -1.7694    0.0000 C   0  0  0  0  0  0  0  0  0  0  0  0
    7.9128   -0.7694    0.0000 C   0  0  0  0  0  0  0  0  0  0  0  0
    7.0468   -2.2694    0.0000 C   0  0  0  0  0  0  0  0  0  0  0  0
    7.9128   -1.7694    0.0000 C   0  0  0  0  0  0  0  0  0  0  0  0
    7.8558    1.3184    0.0000 C   0  0  0  0  0  0  0  0  0  0  0  0
    6.2378    1.3184    0.0000 C   0  0  0  0  0  0  0  0  0  0  0  0
    6.5468    2.2694    0.0000 C   0  0  0  0  0  0  0  0  0  0  0  0
    7.5468    2.2694    0.0000 C   0  0  0  0  0  0  0  0  0  0  0  0
    4.1026    0.0683    0.0000 H   0  0  0  0  0  0  0  0  0  0  0  0
    4.0982    0.7251    0.0000 H   0  0  0  0  0  0  0  0  0  0  0  0
    3.5430    1.3417    0.0000 H   0  0  0  0  0  0  0  0  0  0  0  0
    2.1675   -1.0406    0.0000 H   0  0  0  0  0  0  0  0  0  0  0  0
    2.9791   -1.2131    0.0000 H   0  0  0  0  0  0  0  0  0  0  0  0
    2.6916    1.5227    0.0000 H   0  0  0  0  0  0  0  0  0  0  0  0
    1.9336    1.1852    0.0000 H   0  0  0  0  0  0  0  0  0  0  0  0
    1.4984    0.4314    0.0000 H   0  0  0  0  0  0  0  0  0  0  0  0
    1.5851   -0.3938    0.0000 H   0  0  0  0  0  0  0  0  0  0  0  0
    5.3147    0.3506    0.0000 H   0  0  0  0  0  0  0  0  0  0  0  0
    5.6438   -2.0794    0.0000 H   0  0  0  0  0  0  0  0  0  0  0  0
    8.4497   -0.4594    0.0000 H   0  0  0  0  0  0  0  0  0  0  0  0
    7.0468   -2.8894    0.0000 H   0  0  0  0  0  0  0  0  0  0  0  0
    8.4454    1.1268    0.0000 H   0  0  0  0  0  0  0  0  0  0  0  0
    5.6481    1.1268    0.0000 H   0  0  0  0  0  0  0  0  0  0  0  0
    6.1823    2.7710    0.0000 H   0  0  0  0  0  0  0  0  0  0  0  0
    7.9112    2.7710    0.0000 H   0  0  0  0  0  0  0  0  0  0  0  0
  1 16  1  0  0  0  0
  2 10  2  0  0  0  0
  3 10  1  0  0  0  0
  3 11  1  0  0  0  0
  3 30  1  0  0  0  0
  4 12  1  0  0  0  0
  4 17  1  0  0  0  0
  4 18  1  0  0  0  0
  5  6  1  0  0  0  0
  5  7  1  0  0  0  0
  5 10  1  0  0  0  0
  5 21  1  0  0  0  0
  6  8  1  0  0  0  0
  6 22  1  0  0  0  0
  6 23  1  0  0  0  0
  7  9  1  0  0  0  0
  7 24  1  0  0  0  0
  7 25  1  0  0  0  0
  8  9  1  0  0  0  0
  8 26  1  0  0  0  0
  8 27  1  0  0  0  0
  9 28  1  0  0  0  0
  9 29  1  0  0  0  0
 11 12  2  0  0  0  0
 11 13  1  0  0  0  0
 12 14  1  0  0  0  0
 13 15  2  0  0  0  0
 13 31  1  0  0  0  0
 14 16  2  0  0  0  0
 14 32  1  0  0  0  0
 15 16  1  0  0  0  0
 15 33  1  0  0  0  0
 17 20  2  0  0  0  0
 17 34  1  0  0  0  0
 18 19  2  0  0  0  0
 18 35  1  0  0  0  0
 19 20  1  0  0  0  0
 19 36  1  0  0  0  0
 20 37  1  0  0  0  0
M  END
> <PUBCHEM_COMPOUND_CID>
56530725

> <PUBCHEM_COMPOUND_CANONICALIZED>
1

> <PUBCHEM_CACTVS_COMPLEXITY>
337

> <PUBCHEM_CACTVS_HBOND_ACCEPTOR>
1

> <PUBCHEM_CACTVS_HBOND_DONOR>
1

> <PUBCHEM_CACTVS_ROTATABLE_BOND>
3

> <PUBCHEM_CACTVS_SUBSKEYS>
AAADceB7IAAEAAAAAAAAAAAAAAAAAeIAAAAwAAAAAAAAAAABwAAAHgIQAAAADQrBkiQ8wJPMEACoADV3VACCgCAxByAI2CE4dpgIYPLBk5GUIAhglADIyAcYCAAOAABAAAIAACAAAIAABAAAQAAAAAAAAA==

> <PUBCHEM_IUPAC_OPENEYE_NAME>
N-(4-chloro-2-pyrrol-1-yl-phenyl)cyclopentanecarboxamide

> <PUBCHEM_IUPAC_CAS_NAME>
N-[4-chloro-2-(1-pyrrolyl)phenyl]cyclopentanecarboxamide

> <PUBCHEM_IUPAC_NAME>
N-(4-chloro-2-pyrrol-1-ylphenyl)cyclopentanecarboxamide

> <PUBCHEM_IUPAC_SYSTEMATIC_NAME>
N-(4-chloranyl-2-pyrrol-1-yl-phenyl)cyclopentanecarboxamide

> <PUBCHEM_IUPAC_TRADITIONAL_NAME>
N-(4-chloro-2-pyrrol-1-yl-phenyl)cyclopentanecarboxamide

> <PUBCHEM_IUPAC_INCHI>
InChI=1S/C16H17ClN2O/c17-13-7-8-14(15(11-13)19-9-3-4-10-19)18-16(20)12-5-1-2-6-12/h3-4,7-12H,1-2,5-6H2,(H,18,20)

> <PUBCHEM_IUPAC_INCHIKEY>
VKQBTRWGXXDOEV-UHFFFAOYSA-N

> <PUBCHEM_XLOGP3>
3.2

> <PUBCHEM_EXACT_MASS>
288.102941

> <PUBCHEM_MOLECULAR_FORMULA>
C16H17ClN2O

> <PUBCHEM_MOLECULAR_WEIGHT>
288.77198

> <PUBCHEM_OPENEYE_CAN_SMILES>
C1CCC(C1)C(=O)NC2=C(C=C(C=C2)Cl)N3C=CC=C3

> <PUBCHEM_OPENEYE_ISO_SMILES>
C1CCC(C1)C(=O)NC2=C(C=C(C=C2)Cl)N3C=CC=C3

> <PUBCHEM_CACTVS_TPSA>
34

> <PUBCHEM_MONOISOTOPIC_WEIGHT>
288.102941

> <PUBCHEM_TOTAL_CHARGE>
0

> <PUBCHEM_HEAVY_ATOM_COUNT>
20

> <PUBCHEM_ATOM_DEF_STEREO_COUNT>
0

> <PUBCHEM_ATOM_UDEF_STEREO_COUNT>
0

> <PUBCHEM_BOND_DEF_STEREO_COUNT>
0

> <PUBCHEM_BOND_UDEF_STEREO_COUNT>
0

> <PUBCHEM_ISOTOPIC_ATOM_COUNT>
0

> <PUBCHEM_COMPONENT_COUNT>
1

> <PUBCHEM_CACTVS_TAUTO_COUNT>
3

> <PUBCHEM_COORDINATE_TYPE>
1
5
255

> <PUBCHEM_BONDANNOTATIONS>
11  12  8
11  13  8
12  14  8
13  15  8
14  16  8
15  16  8
17  20  8
18  19  8
19  20  8
4  17  8
4  18  8

$$$$
