46494845
  -OEChem-03221309392D

 67 71  0     1  0  0  0  0  0999 V2000
    9.1251   -1.6474    0.0000 O   0  0  0  0  0  0  0  0  0  0  0  0
    6.4673   -3.1958    0.0000 O   0  0  0  0  0  0  0  0  0  0  0  0
    5.6286    0.3524    0.0000 O   0  0  0  0  0  0  0  0  0  0  0  0
    3.7320   -2.6997    0.0000 O   0  0  0  0  0  0  0  0  0  0  0  0
   10.3848    3.2259    0.0000 O   0  0  0  0  0  0  0  0  0  0  0  0
   12.1454    3.5016    0.0000 O   0  0  0  0  0  0  0  0  0  0  0  0
    4.7742    1.8590    0.0000 O   0  5  0  0  0  0  0  0  0  0  0  0
    6.5062    1.8457    0.0000 O   0  0  0  0  0  0  0  0  0  0  0  0
    2.0000   -2.6930    0.0000 O   0  5  0  0  0  0  0  0  0  0  0  0
    2.8718   -1.1964    0.0000 O   0  0  0  0  0  0  0  0  0  0  0  0
    5.6363    1.3524    0.0000 N   0  3  0  0  0  0  0  0  0  0  0  0
    2.8680   -2.1964    0.0000 N   0  3  0  0  0  0  0  0  0  0  0  0
    8.2591   -1.1474    0.0000 C   0  0  1  0  0  0  0  0  0  0  0  0
    9.1251   -0.6474    0.0000 C   0  0  3  0  0  0  0  0  0  0  0  0
    7.3931   -0.6474    0.0000 C   0  0  1  0  0  0  0  0  0  0  0  0
    9.1251    0.3526    0.0000 C   0  0  3  0  0  0  0  0  0  0  0  0
    6.4831   -1.1542    0.0000 C   0  0  3  0  0  0  0  0  0  0  0  0
    6.4750   -2.1958    0.0000 C   0  0  3  0  0  0  0  0  0  0  0  0
    7.3931    0.3526    0.0000 C   0  0  0  0  0  0  0  0  0  0  0  0
    8.2591    0.8526    0.0000 C   0  0  0  0  0  0  0  0  0  0  0  0
   10.0713    0.6574    0.0000 C   0  0  3  0  0  0  0  0  0  0  0  0
    8.2752   -2.1889    0.0000 C   0  0  0  0  0  0  0  0  0  0  0  0
   10.0713   -0.9521    0.0000 C   0  0  0  0  0  0  0  0  0  0  0  0
    7.3771   -2.7166    0.0000 C   0  0  0  0  0  0  0  0  0  0  0  0
   10.6550   -0.1474    0.0000 C   0  0  0  0  0  0  0  0  0  0  0  0
    5.5562   -0.5901    0.0000 C   0  0  0  0  0  0  0  0  0  0  0  0
    5.5396   -2.7455    0.0000 C   0  0  0  0  0  0  0  0  0  0  0  0
    6.4908   -0.1542    0.0000 C   0  0  0  0  0  0  0  0  0  0  0  0
    9.1251    1.3526    0.0000 C   0  0  0  0  0  0  0  0  0  0  0  0
    4.6084   -1.1181    0.0000 C   0  0  0  0  0  0  0  0  0  0  0  0
    4.6000   -2.2030    0.0000 C   0  0  3  0  0  0  0  0  0  0  0  0
   10.3820    1.6079    0.0000 C   0  0  0  0  0  0  0  0  0  0  0  0
    9.7956    2.4179    0.0000 C   0  0  0  0  0  0  0  0  0  0  0  0
   11.3336    1.9152    0.0000 C   0  0  0  0  0  0  0  0  0  0  0  0
   11.3353    2.9152    0.0000 C   0  0  0  0  0  0  0  0  0  0  0  0
    8.9985   -1.5667    0.0000 H   0  0  0  0  0  0  0  0  0  0  0  0
    8.1292   -0.2224    0.0000 H   0  0  0  0  0  0  0  0  0  0  0  0
    7.1810    0.9352    0.0000 H   0  0  0  0  0  0  0  0  0  0  0  0
    6.7825    0.2450    0.0000 H   0  0  0  0  0  0  0  0  0  0  0  0
    8.6576    1.3276    0.0000 H   0  0  0  0  0  0  0  0  0  0  0  0
    7.8606    1.3276    0.0000 H   0  0  0  0  0  0  0  0  0  0  0  0
   10.6838    0.7536    0.0000 H   0  0  0  0  0  0  0  0  0  0  0  0
    8.4932   -2.7693    0.0000 H   0  0  0  0  0  0  0  0  0  0  0  0
    8.8843   -2.0734    0.0000 H   0  0  0  0  0  0  0  0  0  0  0  0
    9.8203   -1.5190    0.0000 H   0  0  0  0  0  0  0  0  0  0  0  0
   10.6087   -1.2613    0.0000 H   0  0  0  0  0  0  0  0  0  0  0  0
    6.9798   -3.1926    0.0000 H   0  0  0  0  0  0  0  0  0  0  0  0
    7.7781   -3.1895    0.0000 H   0  0  0  0  0  0  0  0  0  0  0  0
   11.1158   -0.5621    0.0000 H   0  0  0  0  0  0  0  0  0  0  0  0
   11.1158    0.2674    0.0000 H   0  0  0  0  0  0  0  0  0  0  0  0
    5.9644   -0.1235    0.0000 H   0  0  0  0  0  0  0  0  0  0  0  0
    5.1663   -0.1081    0.0000 H   0  0  0  0  0  0  0  0  0  0  0  0
    5.1423   -3.2215    0.0000 H   0  0  0  0  0  0  0  0  0  0  0  0
    5.9406   -3.2184    0.0000 H   0  0  0  0  0  0  0  0  0  0  0  0
    7.1005   -0.2666    0.0000 H   0  0  0  0  0  0  0  0  0  0  0  0
    6.7073    0.4267    0.0000 H   0  0  0  0  0  0  0  0  0  0  0  0
    9.7451    1.3526    0.0000 H   0  0  0  0  0  0  0  0  0  0  0  0
    9.1251    1.9726    0.0000 H   0  0  0  0  0  0  0  0  0  0  0  0
    8.5051    1.3526    0.0000 H   0  0  0  0  0  0  0  0  0  0  0  0
    4.4038   -0.5328    0.0000 H   0  0  0  0  0  0  0  0  0  0  0  0
    3.9967   -1.2195    0.0000 H   0  0  0  0  0  0  0  0  0  0  0  0
    4.0648   -1.8899    0.0000 H   0  0  0  0  0  0  0  0  0  0  0  0
    9.6621   -1.9574    0.0000 H   0  0  0  0  0  0  0  0  0  0  0  0
    5.9280   -3.5016    0.0000 H   0  0  0  0  0  0  0  0  0  0  0  0
    9.3356    2.8336    0.0000 H   0  0  0  0  0  0  0  0  0  0  0  0
    9.3342    2.0038    0.0000 H   0  0  0  0  0  0  0  0  0  0  0  0
   11.8346    1.5500    0.0000 H   0  0  0  0  0  0  0  0  0  0  0  0
  1 14  1  0  0  0  0
  1 63  1  0  0  0  0
  2 18  1  0  0  0  0
  2 64  1  0  0  0  0
  3 11  1  0  0  0  0
  3 28  1  0  0  0  0
  4 12  1  0  0  0  0
  4 31  1  0  0  0  0
  5 33  1  0  0  0  0
  5 35  1  0  0  0  0
  6 35  2  0  0  0  0
  7 11  1  0  0  0  0
  8 11  2  0  0  0  0
  9 12  1  0  0  0  0
 10 12  2  0  0  0  0
 13 14  1  0  0  0  0
 13 15  1  0  0  0  0
 13 22  1  0  0  0  0
 13 36  1  1  0  0  0
 14 16  1  0  0  0  0
 14 23  1  0  0  0  0
 15 17  1  0  0  0  0
 15 19  1  0  0  0  0
 15 37  1  6  0  0  0
 16 20  1  0  0  0  0
 16 21  1  0  0  0  0
 16 29  1  0  0  0  0
 17 18  1  0  0  0  0
 17 26  1  0  0  0  0
 17 28  1  0  0  0  0
 18 24  1  0  0  0  0
 18 27  1  0  0  0  0
 19 20  1  0  0  0  0
 19 38  1  0  0  0  0
 19 39  1  0  0  0  0
 20 40  1  0  0  0  0
 20 41  1  0  0  0  0
 21 25  1  0  0  0  0
 21 32  1  0  0  0  0
 21 42  1  0  0  0  0
 22 24  1  0  0  0  0
 22 43  1  0  0  0  0
 22 44  1  0  0  0  0
 23 25  1  0  0  0  0
 23 45  1  0  0  0  0
 23 46  1  0  0  0  0
 24 47  1  0  0  0  0
 24 48  1  0  0  0  0
 25 49  1  0  0  0  0
 25 50  1  0  0  0  0
 26 30  1  0  0  0  0
 26 51  1  0  0  0  0
 26 52  1  0  0  0  0
 27 31  1  0  0  0  0
 27 53  1  0  0  0  0
 27 54  1  0  0  0  0
 28 55  1  0  0  0  0
 28 56  1  0  0  0  0
 29 57  1  0  0  0  0
 29 58  1  0  0  0  0
 29 59  1  0  0  0  0
 30 31  1  0  0  0  0
 30 60  1  0  0  0  0
 30 61  1  0  0  0  0
 31 62  1  0  0  0  0
 32 33  1  0  0  0  0
 32 34  2  0  0  0  0
 33 65  1  0  0  0  0
 33 66  1  0  0  0  0
 34 35  1  0  0  0  0
 34 67  1  0  0  0  0
M  CHG  4   7  -1   9  -1  11   1  12   1
M  END
> <PUBCHEM_COMPOUND_CID>
46494845

> <PUBCHEM_COMPOUND_CANONICALIZED>
1

> <PUBCHEM_CACTVS_COMPLEXITY>
961

> <PUBCHEM_CACTVS_HBOND_ACCEPTOR>
10

> <PUBCHEM_CACTVS_HBOND_DONOR>
2

> <PUBCHEM_CACTVS_ROTATABLE_BOND>
4

> <PUBCHEM_CACTVS_SUBSKEYS>
AAADcfB7PAAAAAAAAAAAAAAAAAAAAYIAAAAwYMAAAAAAAGDAAAAAGgAECAAAD1SggAICCAAARgCJAiDSCQAAAAAgAAAACAAAAEgABAIAIQACUAAFgAAIIQOA4PwPgAAAAAAAAADAAAYQADAAAYAADAAAAA==

> <PUBCHEM_IUPAC_OPENEYE_NAME>
[(8R,9S)-5,14-dihydroxy-13-methyl-10-(nitrooxymethyl)-17-(5-oxo-2H-furan-3-yl)-2,3,4,6,7,8,9,11,12,15,16,17-dodecahydro-1H-cyclopenta[a]phenanthren-3-yl] nitrate

> <PUBCHEM_IUPAC_CAS_NAME>
nitric acid [(8R,9S)-5,14-dihydroxy-13-methyl-10-(nitrooxymethyl)-17-(5-oxo-2H-furan-3-yl)-2,3,4,6,7,8,9,11,12,15,16,17-dodecahydro-1H-cyclopenta[a]phenanthren-3-yl] ester

> <PUBCHEM_IUPAC_NAME>
[(8R,9S)-5,14-dihydroxy-13-methyl-10-(nitrooxymethyl)-17-(5-oxo-2H-furan-3-yl)-2,3,4,6,7,8,9,11,12,15,16,17-dodecahydro-1H-cyclopenta[a]phenanthren-3-yl] nitrate

> <PUBCHEM_IUPAC_SYSTEMATIC_NAME>
[(8R,9S)-13-methyl-3-nitrooxy-5,14-bis(oxidanyl)-17-(5-oxidanylidene-2H-furan-3-yl)-2,3,4,6,7,8,9,11,12,15,16,17-dodecahydro-1H-cyclopenta[a]phenanthren-10-yl]methyl nitrate

> <PUBCHEM_IUPAC_TRADITIONAL_NAME>
nitric acid [(8R,9S)-5,14-dihydroxy-17-(5-keto-2H-furan-3-yl)-13-methyl-3-nitrooxy-2,3,4,6,7,8,9,11,12,15,16,17-dodecahydro-1H-cyclopenta[a]phenanthren-10-yl]methyl ester

> <PUBCHEM_IUPAC_INCHI>
InChI=1S/C23H32N2O10/c1-20-6-3-17-18(23(20,28)9-5-16(20)14-10-19(26)33-12-14)4-8-22(27)11-15(35-25(31)32)2-7-21(17,22)13-34-24(29)30/h10,15-18,27-28H,2-9,11-13H2,1H3/t15?,16?,17-,18+,20?,21?,22?,23?/m0/s1

> <PUBCHEM_IUPAC_INCHIKEY>
CHJQNSQIFMQVEP-PWQQVRBZSA-N

> <PUBCHEM_XLOGP3>
1.8

> <PUBCHEM_EXACT_MASS>
496.205695

> <PUBCHEM_MOLECULAR_FORMULA>
C23H32N2O10

> <PUBCHEM_MOLECULAR_WEIGHT>
496.50758

> <PUBCHEM_OPENEYE_CAN_SMILES>
CC12CCC3C(C1(CCC2C4=CC(=O)OC4)O)CCC5(C3(CCC(C5)O[N+](=O)[O-])CO[N+](=O)[O-])O

> <PUBCHEM_OPENEYE_ISO_SMILES>
CC12CC[C@H]3[C@H](C1(CCC2C4=CC(=O)OC4)O)CCC5(C3(CCC(C5)O[N+](=O)[O-])CO[N+](=O)[O-])O

> <PUBCHEM_CACTVS_TPSA>
177

> <PUBCHEM_MONOISOTOPIC_WEIGHT>
496.205695

> <PUBCHEM_TOTAL_CHARGE>
0

> <PUBCHEM_HEAVY_ATOM_COUNT>
35

> <PUBCHEM_ATOM_DEF_STEREO_COUNT>
2

> <PUBCHEM_ATOM_UDEF_STEREO_COUNT>
6

> <PUBCHEM_BOND_DEF_STEREO_COUNT>
0

> <PUBCHEM_BOND_UDEF_STEREO_COUNT>
0

> <PUBCHEM_ISOTOPIC_ATOM_COUNT>
0

> <PUBCHEM_COMPONENT_COUNT>
1

> <PUBCHEM_CACTVS_TAUTO_COUNT>
1

> <PUBCHEM_COORDINATE_TYPE>
1
5
255

> <PUBCHEM_BONDANNOTATIONS>
14  1  3
13  36  5
15  37  6
16  29  3
17  28  3
18  2  3
21  32  3
31  4  3

$$$$
