56776779
  -OEChem-11301218102D

 27 28  0     0  0  0  0  0  0999 V2000
    2.0000   -0.3100    0.0000 Cl  0  0  0  0  0  0  0  0  0  0  0  0
    5.4641    2.6900    0.0000 N   0  0  0  0  0  0  0  0  0  0  0  0
    3.7320   -0.3100    0.0000 C   0  0  0  0  0  0  0  0  0  0  0  0
    3.7320    0.6900    0.0000 C   0  0  0  0  0  0  0  0  0  0  0  0
    2.8660   -0.8100    0.0000 C   0  0  0  0  0  0  0  0  0  0  0  0
    4.5981   -0.8100    0.0000 C   0  0  0  0  0  0  0  0  0  0  0  0
    3.7320   -2.3100    0.0000 C   0  0  0  0  0  0  0  0  0  0  0  0
    4.5981    1.1900    0.0000 C   0  0  0  0  0  0  0  0  0  0  0  0
    2.8660   -1.8100    0.0000 C   0  0  0  0  0  0  0  0  0  0  0  0
    4.5981   -1.8100    0.0000 C   0  0  0  0  0  0  0  0  0  0  0  0
    2.8660    1.1900    0.0000 C   0  0  0  0  0  0  0  0  0  0  0  0
    4.5981    2.1900    0.0000 C   0  0  0  0  0  0  0  0  0  0  0  0
    2.8660    2.1900    0.0000 C   0  0  0  0  0  0  0  0  0  0  0  0
    3.7320    2.6900    0.0000 C   0  0  0  0  0  0  0  0  0  0  0  0
    3.7320   -3.3100    0.0000 C   0  0  0  0  0  0  0  0  0  0  0  0
    5.1350   -0.5000    0.0000 H   0  0  0  0  0  0  0  0  0  0  0  0
    5.1350    0.8800    0.0000 H   0  0  0  0  0  0  0  0  0  0  0  0
    2.3291   -2.1200    0.0000 H   0  0  0  0  0  0  0  0  0  0  0  0
    5.1350   -2.1200    0.0000 H   0  0  0  0  0  0  0  0  0  0  0  0
    2.3291    0.8800    0.0000 H   0  0  0  0  0  0  0  0  0  0  0  0
    2.3291    2.5000    0.0000 H   0  0  0  0  0  0  0  0  0  0  0  0
    3.7320    3.3100    0.0000 H   0  0  0  0  0  0  0  0  0  0  0  0
    3.1120   -3.3100    0.0000 H   0  0  0  0  0  0  0  0  0  0  0  0
    3.7320   -3.9300    0.0000 H   0  0  0  0  0  0  0  0  0  0  0  0
    4.3520   -3.3100    0.0000 H   0  0  0  0  0  0  0  0  0  0  0  0
    5.4641    3.3100    0.0000 H   0  0  0  0  0  0  0  0  0  0  0  0
    6.0010    2.3800    0.0000 H   0  0  0  0  0  0  0  0  0  0  0  0
  1  5  1  0  0  0  0
  2 12  1  0  0  0  0
  2 26  1  0  0  0  0
  2 27  1  0  0  0  0
  3  4  1  0  0  0  0
  3  5  2  0  0  0  0
  3  6  1  0  0  0  0
  4  8  2  0  0  0  0
  4 11  1  0  0  0  0
  5  9  1  0  0  0  0
  6 10  2  0  0  0  0
  6 16  1  0  0  0  0
  7  9  2  0  0  0  0
  7 10  1  0  0  0  0
  7 15  1  0  0  0  0
  8 12  1  0  0  0  0
  8 17  1  0  0  0  0
  9 18  1  0  0  0  0
 10 19  1  0  0  0  0
 11 13  2  0  0  0  0
 11 20  1  0  0  0  0
 12 14  2  0  0  0  0
 13 14  1  0  0  0  0
 13 21  1  0  0  0  0
 14 22  1  0  0  0  0
 15 23  1  0  0  0  0
 15 24  1  0  0  0  0
 15 25  1  0  0  0  0
M  END
> <PUBCHEM_COMPOUND_CID>
56776779

> <PUBCHEM_COMPOUND_CANONICALIZED>
1

> <PUBCHEM_CACTVS_COMPLEXITY>
207

> <PUBCHEM_CACTVS_HBOND_ACCEPTOR>
1

> <PUBCHEM_CACTVS_HBOND_DONOR>
1

> <PUBCHEM_CACTVS_ROTATABLE_BOND>
1

> <PUBCHEM_CACTVS_SUBSKEYS>
AAADccByAAAEAAAAAAAAAAAAAAAAAAAAAAAwYAAAAAAAAAABQAAAHAIQAAAADAqBGCAywIBAAACAAiRCQACCAAAgBwAIiAAAZogIICKBk5GAIABgkAAIyAcQgMAOwAAAYAABAACAAADAAAIAAAAAAAAAAA==

> <PUBCHEM_IUPAC_OPENEYE_NAME>
3-(2-chloro-4-methyl-phenyl)aniline

> <PUBCHEM_IUPAC_CAS_NAME>
3-(2-chloro-4-methylphenyl)aniline

> <PUBCHEM_IUPAC_NAME>
3-(2-chloro-4-methylphenyl)aniline

> <PUBCHEM_IUPAC_SYSTEMATIC_NAME>
3-(2-chloranyl-4-methyl-phenyl)aniline

> <PUBCHEM_IUPAC_TRADITIONAL_NAME>
[3-(2-chloro-4-methyl-phenyl)phenyl]amine

> <PUBCHEM_IUPAC_INCHI>
InChI=1S/C13H12ClN/c1-9-5-6-12(13(14)7-9)10-3-2-4-11(15)8-10/h2-8H,15H2,1H3

> <PUBCHEM_IUPAC_INCHIKEY>
ZLWKVXINLHEKBU-UHFFFAOYSA-N

> <PUBCHEM_XLOGP3>
4.1

> <PUBCHEM_EXACT_MASS>
217.065827

> <PUBCHEM_MOLECULAR_FORMULA>
C13H12ClN

> <PUBCHEM_MOLECULAR_WEIGHT>
217.69408

> <PUBCHEM_OPENEYE_CAN_SMILES>
CC1=CC(=C(C=C1)C2=CC(=CC=C2)N)Cl

> <PUBCHEM_OPENEYE_ISO_SMILES>
CC1=CC(=C(C=C1)C2=CC(=CC=C2)N)Cl

> <PUBCHEM_CACTVS_TPSA>
26

> <PUBCHEM_MONOISOTOPIC_WEIGHT>
217.065827

> <PUBCHEM_TOTAL_CHARGE>
0

> <PUBCHEM_HEAVY_ATOM_COUNT>
15

> <PUBCHEM_ATOM_DEF_STEREO_COUNT>
0

> <PUBCHEM_ATOM_UDEF_STEREO_COUNT>
0

> <PUBCHEM_BOND_DEF_STEREO_COUNT>
0

> <PUBCHEM_BOND_UDEF_STEREO_COUNT>
0

> <PUBCHEM_ISOTOPIC_ATOM_COUNT>
0

> <PUBCHEM_COMPONENT_COUNT>
1

> <PUBCHEM_CACTVS_TAUTO_COUNT>
1

> <PUBCHEM_COORDINATE_TYPE>
1
5
255

> <PUBCHEM_BONDANNOTATIONS>
11  13  8
12  14  8
13  14  8
3  5  8
3  6  8
4  11  8
4  8  8
5  9  8
6  10  8
7  10  8
7  9  8
8  12  8

$$$$
56776796
  -OEChem-11301218102D

 23 24  0     0  0  0  0  0  0999 V2000
    2.0000   -2.0000    0.0000 Cl  0  0  0  0  0  0  0  0  0  0  0  0
    3.7320   -3.0000    0.0000 Cl  0  0  0  0  0  0  0  0  0  0  0  0
    6.3301    0.5000    0.0000 N   0  0  0  0  0  0  0  0  0  0  0  0
    3.7320    1.0000    0.0000 C   0  0  0  0  0  0  0  0  0  0  0  0
    3.7320   -0.0000    0.0000 C   0  0  0  0  0  0  0  0  0  0  0  0
    4.5981    1.5000    0.0000 C   0  0  0  0  0  0  0  0  0  0  0  0
    2.8660   -0.5000    0.0000 C   0  0  0  0  0  0  0  0  0  0  0  0
    4.5981   -0.5000    0.0000 C   0  0  0  0  0  0  0  0  0  0  0  0
    2.8660    1.5000    0.0000 C   0  0  0  0  0  0  0  0  0  0  0  0
    2.8660   -1.5000    0.0000 C   0  0  0  0  0  0  0  0  0  0  0  0
    4.5981   -1.5000    0.0000 C   0  0  0  0  0  0  0  0  0  0  0  0
    4.5981    2.5000    0.0000 C   0  0  0  0  0  0  0  0  0  0  0  0
    2.8660    2.5000    0.0000 C   0  0  0  0  0  0  0  0  0  0  0  0
    3.7320   -2.0000    0.0000 C   0  0  0  0  0  0  0  0  0  0  0  0
    3.7320    3.0000    0.0000 C   0  0  0  0  0  0  0  0  0  0  0  0
    5.4641    1.0000    0.0000 C   0  0  0  0  0  0  0  0  0  0  0  0
    2.3291   -0.1900    0.0000 H   0  0  0  0  0  0  0  0  0  0  0  0
    5.1350   -0.1900    0.0000 H   0  0  0  0  0  0  0  0  0  0  0  0
    2.3291    1.1900    0.0000 H   0  0  0  0  0  0  0  0  0  0  0  0
    5.1350   -1.8100    0.0000 H   0  0  0  0  0  0  0  0  0  0  0  0
    5.1350    2.8100    0.0000 H   0  0  0  0  0  0  0  0  0  0  0  0
    2.3291    2.8100    0.0000 H   0  0  0  0  0  0  0  0  0  0  0  0
    3.7320    3.6200    0.0000 H   0  0  0  0  0  0  0  0  0  0  0  0
  1 10  1  0  0  0  0
  2 14  1  0  0  0  0
  3 16  3  0  0  0  0
  4  5  1  0  0  0  0
  4  6  1  0  0  0  0
  4  9  2  0  0  0  0
  5  7  2  0  0  0  0
  5  8  1  0  0  0  0
  6 12  2  0  0  0  0
  6 16  1  0  0  0  0
  7 10  1  0  0  0  0
  7 17  1  0  0  0  0
  8 11  2  0  0  0  0
  8 18  1  0  0  0  0
  9 13  1  0  0  0  0
  9 19  1  0  0  0  0
 10 14  2  0  0  0  0
 11 14  1  0  0  0  0
 11 20  1  0  0  0  0
 12 15  1  0  0  0  0
 12 21  1  0  0  0  0
 13 15  2  0  0  0  0
 13 22  1  0  0  0  0
 15 23  1  0  0  0  0
M  END
> <PUBCHEM_COMPOUND_CID>
56776796

> <PUBCHEM_COMPOUND_CANONICALIZED>
1

> <PUBCHEM_CACTVS_COMPLEXITY>
283

> <PUBCHEM_CACTVS_HBOND_ACCEPTOR>
1

> <PUBCHEM_CACTVS_HBOND_DONOR>
0

> <PUBCHEM_CACTVS_ROTATABLE_BOND>
1

> <PUBCHEM_CACTVS_SUBSKEYS>
AAADcYByAAAGAAAAAAAAAAAAAAAAAAAAAAAwYAAAAAAAAAABQAAAHAIAAAAADAKBGCAwAIAAAACQBiBCAAAiAAAgBQAIikAAAogIoCKBExCAIAAggAAIiA8AgMAOhAAAIAAQAAQIAABAACAACAAAAAAAAA==

> <PUBCHEM_IUPAC_OPENEYE_NAME>
2-(3,4-dichlorophenyl)benzonitrile

> <PUBCHEM_IUPAC_CAS_NAME>
2-(3,4-dichlorophenyl)benzonitrile

> <PUBCHEM_IUPAC_NAME>
2-(3,4-dichlorophenyl)benzonitrile

> <PUBCHEM_IUPAC_SYSTEMATIC_NAME>
2-(3,4-dichlorophenyl)benzenecarbonitrile

> <PUBCHEM_IUPAC_TRADITIONAL_NAME>
2-(3,4-dichlorophenyl)benzonitrile

> <PUBCHEM_IUPAC_INCHI>
InChI=1S/C13H7Cl2N/c14-12-6-5-9(7-13(12)15)11-4-2-1-3-10(11)8-16/h1-7H

> <PUBCHEM_IUPAC_INCHIKEY>
RRYLFNBGSUJUSU-UHFFFAOYSA-N

> <PUBCHEM_XLOGP3>
5

> <PUBCHEM_EXACT_MASS>
246.995555

> <PUBCHEM_MOLECULAR_FORMULA>
C13H7Cl2N

> <PUBCHEM_MOLECULAR_WEIGHT>
248.10738

> <PUBCHEM_OPENEYE_CAN_SMILES>
C1=CC=C(C(=C1)C#N)C2=CC(=C(C=C2)Cl)Cl

> <PUBCHEM_OPENEYE_ISO_SMILES>
C1=CC=C(C(=C1)C#N)C2=CC(=C(C=C2)Cl)Cl

> <PUBCHEM_CACTVS_TPSA>
23.8

> <PUBCHEM_MONOISOTOPIC_WEIGHT>
246.995555

> <PUBCHEM_TOTAL_CHARGE>
0

> <PUBCHEM_HEAVY_ATOM_COUNT>
16

> <PUBCHEM_ATOM_DEF_STEREO_COUNT>
0

> <PUBCHEM_ATOM_UDEF_STEREO_COUNT>
0

> <PUBCHEM_BOND_DEF_STEREO_COUNT>
0

> <PUBCHEM_BOND_UDEF_STEREO_COUNT>
0

> <PUBCHEM_ISOTOPIC_ATOM_COUNT>
0

> <PUBCHEM_COMPONENT_COUNT>
1

> <PUBCHEM_CACTVS_TAUTO_COUNT>
1

> <PUBCHEM_COORDINATE_TYPE>
1
5
255

> <PUBCHEM_BONDANNOTATIONS>
10  14  8
11  14  8
12  15  8
13  15  8
4  6  8
4  9  8
5  7  8
5  8  8
6  12  8
7  10  8
8  11  8
9  13  8

$$$$
56776946
  -OEChem-11301218102D

 19 20  0     0  0  0  0  0  0999 V2000
    3.8660    0.4136    0.0000 N   0  0  0  0  0  0  0  0  0  0  0  0
    4.6750    1.0014    0.0000 N   0  0  0  0  0  0  0  0  0  0  0  0
    3.0000   -1.0864    0.0000 C   0  0  0  0  0  0  0  0  0  0  0  0
    2.0000   -1.0864    0.0000 C   0  0  0  0  0  0  0  0  0  0  0  0
    2.5000   -1.9524    0.0000 C   0  0  0  0  0  0  0  0  0  0  0  0
    3.8660   -0.5864    0.0000 C   0  0  0  0  0  0  0  0  0  0  0  0
    3.0570    1.0014    0.0000 C   0  0  0  0  0  0  0  0  0  0  0  0
    3.3660    1.9524    0.0000 C   0  0  0  0  0  0  0  0  0  0  0  0
    4.3660    1.9524    0.0000 C   0  0  0  0  0  0  0  0  0  0  0  0
    2.8395   -0.4875    0.0000 H   0  0  0  0  0  0  0  0  0  0  0  0
    1.8923   -0.4758    0.0000 H   0  0  0  0  0  0  0  0  0  0  0  0
    1.4174   -1.2985    0.0000 H   0  0  0  0  0  0  0  0  0  0  0  0
    2.0250   -2.3510    0.0000 H   0  0  0  0  0  0  0  0  0  0  0  0
    2.9750   -2.3510    0.0000 H   0  0  0  0  0  0  0  0  0  0  0  0
    4.0781   -1.1690    0.0000 H   0  0  0  0  0  0  0  0  0  0  0  0
    4.4766   -0.4787    0.0000 H   0  0  0  0  0  0  0  0  0  0  0  0
    2.4674    0.8098    0.0000 H   0  0  0  0  0  0  0  0  0  0  0  0
    3.0016    2.4540    0.0000 H   0  0  0  0  0  0  0  0  0  0  0  0
    4.7304    2.4540    0.0000 H   0  0  0  0  0  0  0  0  0  0  0  0
  1  2  1  0  0  0  0
  1  6  1  0  0  0  0
  1  7  1  0  0  0  0
  2  9  2  0  0  0  0
  3  4  1  0  0  0  0
  3  5  1  0  0  0  0
  3  6  1  0  0  0  0
  3 10  1  0  0  0  0
  4  5  1  0  0  0  0
  4 11  1  0  0  0  0
  4 12  1  0  0  0  0
  5 13  1  0  0  0  0
  5 14  1  0  0  0  0
  6 15  1  0  0  0  0
  6 16  1  0  0  0  0
  7  8  2  0  0  0  0
  7 17  1  0  0  0  0
  8  9  1  0  0  0  0
  8 18  1  0  0  0  0
  9 19  1  0  0  0  0
M  END
> <PUBCHEM_COMPOUND_CID>
56776946

> <PUBCHEM_COMPOUND_CANONICALIZED>
1

> <PUBCHEM_CACTVS_COMPLEXITY>
99.1

> <PUBCHEM_CACTVS_HBOND_ACCEPTOR>
1

> <PUBCHEM_CACTVS_HBOND_DONOR>
0

> <PUBCHEM_CACTVS_ROTATABLE_BOND>
2

> <PUBCHEM_CACTVS_SUBSKEYS>
AAADccBjAAAAAAAAAAAAAAAAGAAAAWAAAAAAAAAAAAAAAAABgAAAHAAIAAAADQDBEgQ8gJIIAACiADBnRACQBAARggAYUCA4ZBAAAIBAwUAEhAgACADAAAAAAAAAAAAAAAAAAAAAAAAAAAAAAAAAAAAAAA==

> <PUBCHEM_IUPAC_OPENEYE_NAME>
1-(cyclopropylmethyl)pyrazole

> <PUBCHEM_IUPAC_CAS_NAME>
1-(cyclopropylmethyl)pyrazole

> <PUBCHEM_IUPAC_NAME>
1-(cyclopropylmethyl)pyrazole

> <PUBCHEM_IUPAC_SYSTEMATIC_NAME>
1-(cyclopropylmethyl)pyrazole

> <PUBCHEM_IUPAC_TRADITIONAL_NAME>
1-(cyclopropylmethyl)pyrazole

> <PUBCHEM_IUPAC_INCHI>
InChI=1S/C7H10N2/c1-4-8-9(5-1)6-7-2-3-7/h1,4-5,7H,2-3,6H2

> <PUBCHEM_IUPAC_INCHIKEY>
IWZYEIKJKNCJNW-UHFFFAOYSA-N

> <PUBCHEM_XLOGP3>
0.3

> <PUBCHEM_EXACT_MASS>
122.084398

> <PUBCHEM_MOLECULAR_FORMULA>
C7H10N2

> <PUBCHEM_MOLECULAR_WEIGHT>
122.1677

> <PUBCHEM_OPENEYE_CAN_SMILES>
C1CC1CN2C=CC=N2

> <PUBCHEM_OPENEYE_ISO_SMILES>
C1CC1CN2C=CC=N2

> <PUBCHEM_CACTVS_TPSA>
17.8

> <PUBCHEM_MONOISOTOPIC_WEIGHT>
122.084398

> <PUBCHEM_TOTAL_CHARGE>
0

> <PUBCHEM_HEAVY_ATOM_COUNT>
9

> <PUBCHEM_ATOM_DEF_STEREO_COUNT>
0

> <PUBCHEM_ATOM_UDEF_STEREO_COUNT>
0

> <PUBCHEM_BOND_DEF_STEREO_COUNT>
0

> <PUBCHEM_BOND_UDEF_STEREO_COUNT>
0

> <PUBCHEM_ISOTOPIC_ATOM_COUNT>
0

> <PUBCHEM_COMPONENT_COUNT>
1

> <PUBCHEM_CACTVS_TAUTO_COUNT>
1

> <PUBCHEM_COORDINATE_TYPE>
1
5
255

> <PUBCHEM_BONDANNOTATIONS>
1  2  8
1  7  8
2  9  8
7  8  8
8  9  8

$$$$
56777205
  -OEChem-11301218102D

 17 18  0     0  0  0  0  0  0999 V2000
    2.0000    0.8100    0.0000 Br  0  0  0  0  0  0  0  0  0  0  0  0
    2.0000   -1.1900    0.0000 Cl  0  0  0  0  0  0  0  0  0  0  0  0
    5.4804    1.8446    0.0000 O   0  0  0  0  0  0  0  0  0  0  0  0
    5.4920   -1.2246    0.0000 N   0  0  0  0  0  0  0  0  0  0  0  0
    6.3981    0.3308    0.0000 N   0  0  0  0  0  0  0  0  0  0  0  0
    4.5981   -0.6900    0.0000 C   0  0  0  0  0  0  0  0  0  0  0  0
    4.5981    0.3100    0.0000 C   0  0  0  0  0  0  0  0  0  0  0  0
    3.7320   -1.1900    0.0000 C   0  0  0  0  0  0  0  0  0  0  0  0
    3.7320    0.8100    0.0000 C   0  0  0  0  0  0  0  0  0  0  0  0
    2.8660   -0.6900    0.0000 C   0  0  0  0  0  0  0  0  0  0  0  0
    5.4920    0.8447    0.0000 C   0  0  0  0  0  0  0  0  0  0  0  0
    2.8660    0.3100    0.0000 C   0  0  0  0  0  0  0  0  0  0  0  0
    6.3981   -0.7108    0.0000 C   0  0  0  0  0  0  0  0  0  0  0  0
    3.7320   -1.8100    0.0000 H   0  0  0  0  0  0  0  0  0  0  0  0
    3.7320    1.4300    0.0000 H   0  0  0  0  0  0  0  0  0  0  0  0
    5.4848   -1.8446    0.0000 H   0  0  0  0  0  0  0  0  0  0  0  0
    6.9338   -1.0229    0.0000 H   0  0  0  0  0  0  0  0  0  0  0  0
  1 12  1  0  0  0  0
  2 10  1  0  0  0  0
  3 11  2  0  0  0  0
  4  6  1  0  0  0  0
  4 13  1  0  0  0  0
  4 16  1  0  0  0  0
  5 11  1  0  0  0  0
  5 13  2  0  0  0  0
  6  7  1  0  0  0  0
  6  8  2  0  0  0  0
  7  9  2  0  0  0  0
  7 11  1  0  0  0  0
  8 10  1  0  0  0  0
  8 14  1  0  0  0  0
  9 12  1  0  0  0  0
  9 15  1  0  0  0  0
 10 12  2  0  0  0  0
 13 17  1  0  0  0  0
M  END
> <PUBCHEM_COMPOUND_CID>
56777205

> <PUBCHEM_COMPOUND_CANONICALIZED>
1

> <PUBCHEM_CACTVS_COMPLEXITY>
259

> <PUBCHEM_CACTVS_HBOND_ACCEPTOR>
1

> <PUBCHEM_CACTVS_HBOND_DONOR>
1

> <PUBCHEM_CACTVS_ROTATABLE_BOND>
0

> <PUBCHEM_CACTVS_SUBSKEYS>
AAADcYBzIAAEEAAAAAAAAAAAAAAAAAAAAAAwQAAAAAAAAACBAAAAHgJQAAABrAqBmCQxwILAAACoAiVTdACCAAElBwQBiIEIZugIIDrB3pGEIYhgkABIy9cYiACOBAAgEAICAAIIAEAgBAQABAAAAAAAAA==

> <PUBCHEM_IUPAC_OPENEYE_NAME>
6-bromo-7-chloro-1H-quinazolin-4-one

> <PUBCHEM_IUPAC_CAS_NAME>
6-bromo-7-chloro-1H-quinazolin-4-one

> <PUBCHEM_IUPAC_NAME>
6-bromo-7-chloro-1H-quinazolin-4-one

> <PUBCHEM_IUPAC_SYSTEMATIC_NAME>
6-bromanyl-7-chloranyl-1H-quinazolin-4-one

> <PUBCHEM_IUPAC_TRADITIONAL_NAME>
6-bromo-7-chloro-1H-quinazolin-4-one

> <PUBCHEM_IUPAC_INCHI>
InChI=1S/C8H4BrClN2O/c9-5-1-4-7(2-6(5)10)11-3-12-8(4)13/h1-3H,(H,11,12,13)

> <PUBCHEM_IUPAC_INCHIKEY>
RTTTZYWVEGOBLI-UHFFFAOYSA-N

> <PUBCHEM_XLOGP3>
2.1

> <PUBCHEM_EXACT_MASS>
257.919553

> <PUBCHEM_MOLECULAR_FORMULA>
C8H4BrClN2O

> <PUBCHEM_MOLECULAR_WEIGHT>
259.48716

> <PUBCHEM_OPENEYE_CAN_SMILES>
C1=C2C(=CC(=C1Br)Cl)NC=NC2=O

> <PUBCHEM_OPENEYE_ISO_SMILES>
C1=C2C(=CC(=C1Br)Cl)NC=NC2=O

> <PUBCHEM_CACTVS_TPSA>
41.5

> <PUBCHEM_MONOISOTOPIC_WEIGHT>
257.919553

> <PUBCHEM_TOTAL_CHARGE>
0

> <PUBCHEM_HEAVY_ATOM_COUNT>
13

> <PUBCHEM_ATOM_DEF_STEREO_COUNT>
0

> <PUBCHEM_ATOM_UDEF_STEREO_COUNT>
0

> <PUBCHEM_BOND_DEF_STEREO_COUNT>
0

> <PUBCHEM_BOND_UDEF_STEREO_COUNT>
0

> <PUBCHEM_ISOTOPIC_ATOM_COUNT>
0

> <PUBCHEM_COMPONENT_COUNT>
1

> <PUBCHEM_CACTVS_TAUTO_COUNT>
3

> <PUBCHEM_COORDINATE_TYPE>
1
5
255

> <PUBCHEM_BONDANNOTATIONS>
10  12  8
4  13  8
4  6  8
5  11  8
5  13  8
6  7  8
6  8  8
7  11  8
7  9  8
8  10  8
9  12  8

$$$$
56777209
  -OEChem-11301218102D

 25 25  0     0  0  0  0  0  0999 V2000
    3.7320   -3.5000    0.0000 Br  0  0  0  0  0  0  0  0  0  0  0  0
    2.0000   -0.5000    0.0000 Cl  0  0  0  0  0  0  0  0  0  0  0  0
    3.7320    0.5000    0.0000 O   0  0  0  0  0  0  0  0  0  0  0  0
    4.5981    2.0000    0.0000 C   0  0  0  0  0  0  0  0  0  0  0  0
    5.4641    2.5000    0.0000 C   0  0  0  0  0  0  0  0  0  0  0  0
    4.5981    1.0000    0.0000 C   0  0  0  0  0  0  0  0  0  0  0  0
    5.4641    3.5000    0.0000 C   0  0  0  0  0  0  0  0  0  0  0  0
    3.7320   -0.5000    0.0000 C   0  0  0  0  0  0  0  0  0  0  0  0
    2.8660   -1.0000    0.0000 C   0  0  0  0  0  0  0  0  0  0  0  0
    4.5981   -1.0000    0.0000 C   0  0  0  0  0  0  0  0  0  0  0  0
    2.8660   -2.0000    0.0000 C   0  0  0  0  0  0  0  0  0  0  0  0
    4.5981   -2.0000    0.0000 C   0  0  0  0  0  0  0  0  0  0  0  0
    3.7320   -2.5000    0.0000 C   0  0  0  0  0  0  0  0  0  0  0  0
    4.3860    2.5826    0.0000 H   0  0  0  0  0  0  0  0  0  0  0  0
    3.9875    1.8923    0.0000 H   0  0  0  0  0  0  0  0  0  0  0  0
    5.6762    1.9174    0.0000 H   0  0  0  0  0  0  0  0  0  0  0  0
    6.0747    2.6077    0.0000 H   0  0  0  0  0  0  0  0  0  0  0  0
    4.8101    0.4174    0.0000 H   0  0  0  0  0  0  0  0  0  0  0  0
    5.2087    1.1077    0.0000 H   0  0  0  0  0  0  0  0  0  0  0  0
    6.0841    3.5000    0.0000 H   0  0  0  0  0  0  0  0  0  0  0  0
    5.4641    4.1200    0.0000 H   0  0  0  0  0  0  0  0  0  0  0  0
    4.8441    3.5000    0.0000 H   0  0  0  0  0  0  0  0  0  0  0  0
    5.1350   -0.6900    0.0000 H   0  0  0  0  0  0  0  0  0  0  0  0
    2.3291   -2.3100    0.0000 H   0  0  0  0  0  0  0  0  0  0  0  0
    5.1350   -2.3100    0.0000 H   0  0  0  0  0  0  0  0  0  0  0  0
  1 13  1  0  0  0  0
  2  9  1  0  0  0  0
  3  6  1  0  0  0  0
  3  8  1  0  0  0  0
  4  5  1  0  0  0  0
  4  6  1  0  0  0  0
  4 14  1  0  0  0  0
  4 15  1  0  0  0  0
  5  7  1  0  0  0  0
  5 16  1  0  0  0  0
  5 17  1  0  0  0  0
  6 18  1  0  0  0  0
  6 19  1  0  0  0  0
  7 20  1  0  0  0  0
  7 21  1  0  0  0  0
  7 22  1  0  0  0  0
  8  9  2  0  0  0  0
  8 10  1  0  0  0  0
  9 11  1  0  0  0  0
 10 12  2  0  0  0  0
 10 23  1  0  0  0  0
 11 13  2  0  0  0  0
 11 24  1  0  0  0  0
 12 13  1  0  0  0  0
 12 25  1  0  0  0  0
M  END
> <PUBCHEM_COMPOUND_CID>
56777209

> <PUBCHEM_COMPOUND_CANONICALIZED>
1

> <PUBCHEM_CACTVS_COMPLEXITY>
143

> <PUBCHEM_CACTVS_HBOND_ACCEPTOR>
1

> <PUBCHEM_CACTVS_HBOND_DONOR>
0

> <PUBCHEM_CACTVS_ROTATABLE_BOND>
4

> <PUBCHEM_CACTVS_SUBSKEYS>
AAADccBwIAAEEAAAAAAAAAAAAAAAAAAAAAAwAAAAAAAAAAABAAAAGgJAAAABqAagkCIyBoAABACAACBCAAACCAAgJUQIiAAGC6gMJiOFMxqCOCCkwBEIqheAQAAAABAAAABACAAAIAAAAIAQAAAAAAAAAA==

> <PUBCHEM_IUPAC_OPENEYE_NAME>
4-bromo-1-butoxy-2-chloro-benzene

> <PUBCHEM_IUPAC_CAS_NAME>
4-bromo-1-butoxy-2-chlorobenzene

> <PUBCHEM_IUPAC_NAME>
4-bromo-1-butoxy-2-chlorobenzene

> <PUBCHEM_IUPAC_SYSTEMATIC_NAME>
4-bromanyl-1-butoxy-2-chloranyl-benzene

> <PUBCHEM_IUPAC_TRADITIONAL_NAME>
4-bromo-1-butoxy-2-chloro-benzene

> <PUBCHEM_IUPAC_INCHI>
InChI=1S/C10H12BrClO/c1-2-3-6-13-10-5-4-8(11)7-9(10)12/h4-5,7H,2-3,6H2,1H3

> <PUBCHEM_IUPAC_INCHIKEY>
SXRULEBIOMDAEZ-UHFFFAOYSA-N

> <PUBCHEM_XLOGP3>
5

> <PUBCHEM_EXACT_MASS>
261.976005

> <PUBCHEM_MOLECULAR_FORMULA>
C10H12BrClO

> <PUBCHEM_MOLECULAR_WEIGHT>
263.55868

> <PUBCHEM_OPENEYE_CAN_SMILES>
CCCCOC1=C(C=C(C=C1)Br)Cl

> <PUBCHEM_OPENEYE_ISO_SMILES>
CCCCOC1=C(C=C(C=C1)Br)Cl

> <PUBCHEM_CACTVS_TPSA>
9.2

> <PUBCHEM_MONOISOTOPIC_WEIGHT>
261.976005

> <PUBCHEM_TOTAL_CHARGE>
0

> <PUBCHEM_HEAVY_ATOM_COUNT>
13

> <PUBCHEM_ATOM_DEF_STEREO_COUNT>
0

> <PUBCHEM_ATOM_UDEF_STEREO_COUNT>
0

> <PUBCHEM_BOND_DEF_STEREO_COUNT>
0

> <PUBCHEM_BOND_UDEF_STEREO_COUNT>
0

> <PUBCHEM_ISOTOPIC_ATOM_COUNT>
0

> <PUBCHEM_COMPONENT_COUNT>
1

> <PUBCHEM_CACTVS_TAUTO_COUNT>
1

> <PUBCHEM_COORDINATE_TYPE>
1
5
255

> <PUBCHEM_BONDANNOTATIONS>
10  12  8
11  13  8
12  13  8
8  10  8
8  9  8
9  11  8

$$$$
56783568
  -OEChem-11301218112D

 41 43  0     0  0  0  0  0  0999 V2000
    6.8994    2.2252    0.0000 O   0  0  0  0  0  0  0  0  0  0  0  0
    8.5458    1.6871    0.0000 N   0  0  0  0  0  0  0  0  0  0  0  0
    7.2566    0.5304    0.0000 N   0  0  0  0  0  0  0  0  0  0  0  0
    4.6783   -3.3926    0.0000 N   0  0  0  0  0  0  0  0  0  0  0  0
    8.8564    2.6376    0.0000 C   0  0  0  0  0  0  0  0  0  0  0  0
    9.7482    3.0901    0.0000 C   0  0  0  0  0  0  0  0  0  0  0  0
    8.4040    3.5294    0.0000 C   0  0  0  0  0  0  0  0  0  0  0  0
    9.2958    3.9819    0.0000 C   0  0  0  0  0  0  0  0  0  0  0  0
    7.5673    1.4809    0.0000 C   0  0  0  0  0  0  0  0  0  0  0  0
    5.9674   -0.6264    0.0000 C   0  0  0  0  0  0  0  0  0  0  0  0
    4.9889   -0.8326    0.0000 C   0  0  0  0  0  0  0  0  0  0  0  0
    6.2781    0.3242    0.0000 C   0  0  0  0  0  0  0  0  0  0  0  0
    4.6783   -1.7831    0.0000 C   0  0  0  0  0  0  0  0  0  0  0  0
    3.7320   -2.0878    0.0000 C   0  0  0  0  0  0  0  0  0  0  0  0
    3.7320   -3.0878    0.0000 C   0  0  0  0  0  0  0  0  0  0  0  0
    5.2619   -2.5878    0.0000 C   0  0  0  0  0  0  0  0  0  0  0  0
    2.8660   -1.5878    0.0000 C   0  0  0  0  0  0  0  0  0  0  0  0
    2.8660   -3.5878    0.0000 C   0  0  0  0  0  0  0  0  0  0  0  0
    2.0000   -2.0878    0.0000 C   0  0  0  0  0  0  0  0  0  0  0  0
    2.0000   -3.0878    0.0000 C   0  0  0  0  0  0  0  0  0  0  0  0
    9.3272    2.2342    0.0000 H   0  0  0  0  0  0  0  0  0  0  0  0
   10.0287    2.5372    0.0000 H   0  0  0  0  0  0  0  0  0  0  0  0
   10.3011    3.3706    0.0000 H   0  0  0  0  0  0  0  0  0  0  0  0
    8.1235    4.0823    0.0000 H   0  0  0  0  0  0  0  0  0  0  0  0
    7.8511    3.2489    0.0000 H   0  0  0  0  0  0  0  0  0  0  0  0
    9.8487    4.2624    0.0000 H   0  0  0  0  0  0  0  0  0  0  0  0
    9.0153    4.5348    0.0000 H   0  0  0  0  0  0  0  0  0  0  0  0
    8.9598    1.2257    0.0000 H   0  0  0  0  0  0  0  0  0  0  0  0
    5.9880   -1.2460    0.0000 H   0  0  0  0  0  0  0  0  0  0  0  0
    6.5812   -0.7137    0.0000 H   0  0  0  0  0  0  0  0  0  0  0  0
    4.9684   -0.2129    0.0000 H   0  0  0  0  0  0  0  0  0  0  0  0
    4.3751   -0.7452    0.0000 H   0  0  0  0  0  0  0  0  0  0  0  0
    6.2575    0.9438    0.0000 H   0  0  0  0  0  0  0  0  0  0  0  0
    5.6643    0.4115    0.0000 H   0  0  0  0  0  0  0  0  0  0  0  0
    7.6707    0.0689    0.0000 H   0  0  0  0  0  0  0  0  0  0  0  0
    5.8819   -2.5878    0.0000 H   0  0  0  0  0  0  0  0  0  0  0  0
    4.8709   -3.9819    0.0000 H   0  0  0  0  0  0  0  0  0  0  0  0
    2.8660   -0.9678    0.0000 H   0  0  0  0  0  0  0  0  0  0  0  0
    2.8660   -4.2078    0.0000 H   0  0  0  0  0  0  0  0  0  0  0  0
    1.4631   -1.7778    0.0000 H   0  0  0  0  0  0  0  0  0  0  0  0
    1.4631   -3.3978    0.0000 H   0  0  0  0  0  0  0  0  0  0  0  0
  1  9  2  0  0  0  0
  2  5  1  0  0  0  0
  2  9  1  0  0  0  0
  2 28  1  0  0  0  0
  3  9  1  0  0  0  0
  3 12  1  0  0  0  0
  3 35  1  0  0  0  0
  4 15  1  0  0  0  0
  4 16  1  0  0  0  0
  4 37  1  0  0  0  0
  5  6  1  0  0  0  0
  5  7  1  0  0  0  0
  5 21  1  0  0  0  0
  6  8  1  0  0  0  0
  6 22  1  0  0  0  0
  6 23  1  0  0  0  0
  7  8  1  0  0  0  0
  7 24  1  0  0  0  0
  7 25  1  0  0  0  0
  8 26  1  0  0  0  0
  8 27  1  0  0  0  0
 10 11  1  0  0  0  0
 10 12  1  0  0  0  0
 10 29  1  0  0  0  0
 10 30  1  0  0  0  0
 11 13  1  0  0  0  0
 11 31  1  0  0  0  0
 11 32  1  0  0  0  0
 12 33  1  0  0  0  0
 12 34  1  0  0  0  0
 13 14  1  0  0  0  0
 13 16  2  0  0  0  0
 14 15  1  0  0  0  0
 14 17  2  0  0  0  0
 15 18  2  0  0  0  0
 16 36  1  0  0  0  0
 17 19  1  0  0  0  0
 17 38  1  0  0  0  0
 18 20  1  0  0  0  0
 18 39  1  0  0  0  0
 19 20  2  0  0  0  0
 19 40  1  0  0  0  0
 20 41  1  0  0  0  0
M  END
> <PUBCHEM_COMPOUND_CID>
56783568

> <PUBCHEM_COMPOUND_CANONICALIZED>
1

> <PUBCHEM_CACTVS_COMPLEXITY>
330

> <PUBCHEM_CACTVS_HBOND_ACCEPTOR>
1

> <PUBCHEM_CACTVS_HBOND_DONOR>
3

> <PUBCHEM_CACTVS_ROTATABLE_BOND>
5

> <PUBCHEM_CACTVS_SUBSKEYS>
AAADceB7IAAAAAAAAAAAAAAAAABgAWAAAAAwAAAAAAAAAFgB8AAAHgAQAAAADCjBHgQ9wPLJkACoAzRnVACCgCAxAiAI2aA4ZJiIIOLAkZGEIAholgLIyAcQgMAOgAAAAAACAAAAAAAAAAQAAAAAAAAAAA==

> <PUBCHEM_IUPAC_OPENEYE_NAME>
1-cyclobutyl-3-[3-(1H-indol-3-yl)propyl]urea

> <PUBCHEM_IUPAC_CAS_NAME>
1-cyclobutyl-3-[3-(1H-indol-3-yl)propyl]urea

> <PUBCHEM_IUPAC_NAME>
1-cyclobutyl-3-[3-(1H-indol-3-yl)propyl]urea

> <PUBCHEM_IUPAC_SYSTEMATIC_NAME>
1-cyclobutyl-3-[3-(1H-indol-3-yl)propyl]urea

> <PUBCHEM_IUPAC_TRADITIONAL_NAME>
1-cyclobutyl-3-[3-(1H-indol-3-yl)propyl]urea

> <PUBCHEM_IUPAC_INCHI>
InChI=1S/C16H21N3O/c20-16(19-13-6-3-7-13)17-10-4-5-12-11-18-15-9-2-1-8-14(12)15/h1-2,8-9,11,13,18H,3-7,10H2,(H2,17,19,20)

> <PUBCHEM_IUPAC_INCHIKEY>
GJKXMIMHWODNDK-UHFFFAOYSA-N

> <PUBCHEM_XLOGP3>
2.9

> <PUBCHEM_EXACT_MASS>
271.168462

> <PUBCHEM_MOLECULAR_FORMULA>
C16H21N3O

> <PUBCHEM_MOLECULAR_WEIGHT>
271.35744

> <PUBCHEM_OPENEYE_CAN_SMILES>
C1CC(C1)NC(=O)NCCCC2=CNC3=CC=CC=C32

> <PUBCHEM_OPENEYE_ISO_SMILES>
C1CC(C1)NC(=O)NCCCC2=CNC3=CC=CC=C32

> <PUBCHEM_CACTVS_TPSA>
56.9

> <PUBCHEM_MONOISOTOPIC_WEIGHT>
271.168462

> <PUBCHEM_TOTAL_CHARGE>
0

> <PUBCHEM_HEAVY_ATOM_COUNT>
20

> <PUBCHEM_ATOM_DEF_STEREO_COUNT>
0

> <PUBCHEM_ATOM_UDEF_STEREO_COUNT>
0

> <PUBCHEM_BOND_DEF_STEREO_COUNT>
0

> <PUBCHEM_BOND_UDEF_STEREO_COUNT>
0

> <PUBCHEM_ISOTOPIC_ATOM_COUNT>
0

> <PUBCHEM_COMPONENT_COUNT>
1

> <PUBCHEM_CACTVS_TAUTO_COUNT>
3

> <PUBCHEM_COORDINATE_TYPE>
1
5
255

> <PUBCHEM_BONDANNOTATIONS>
13  14  8
13  16  8
14  15  8
14  17  8
15  18  8
17  19  8
18  20  8
19  20  8
4  15  8
4  16  8

$$$$
