31986793
  -OEChem-03061302162D

 45 47  0     0  0  0  0  0  0999 V2000
    9.7884    4.7355    0.0000 Cl  0  0  0  0  0  0  0  0  0  0  0  0
    7.9245   -0.9676    0.0000 O   0  0  0  0  0  0  0  0  0  0  0  0
    4.6783   -4.1462    0.0000 N   0  0  0  0  0  0  0  0  0  0  0  0
    7.5673    0.7272    0.0000 N   0  0  0  0  0  0  0  0  0  0  0  0
    4.9889   -1.5862    0.0000 C   0  0  0  0  0  0  0  0  0  0  0  0
    5.9674   -1.3800    0.0000 C   0  0  0  0  0  0  0  0  0  0  0  0
    4.6783   -2.5368    0.0000 C   0  0  0  0  0  0  0  0  0  0  0  0
    6.2781   -0.4295    0.0000 C   0  0  0  0  0  0  0  0  0  0  0  0
    3.7321   -2.8415    0.0000 C   0  0  0  0  0  0  0  0  0  0  0  0
    3.7321   -3.8415    0.0000 C   0  0  0  0  0  0  0  0  0  0  0  0
    5.2619   -3.3415    0.0000 C   0  0  0  0  0  0  0  0  0  0  0  0
    7.2566   -0.2233    0.0000 C   0  0  0  0  0  0  0  0  0  0  0  0
    8.5458    0.9335    0.0000 C   0  0  0  0  0  0  0  0  0  0  0  0
    2.8660   -2.3415    0.0000 C   0  0  0  0  0  0  0  0  0  0  0  0
    2.8660   -4.3415    0.0000 C   0  0  0  0  0  0  0  0  0  0  0  0
    8.8564    1.8840    0.0000 C   0  0  0  0  0  0  0  0  0  0  0  0
    6.8994    1.4715    0.0000 C   0  0  0  0  0  0  0  0  0  0  0  0
    2.0000   -2.8415    0.0000 C   0  0  0  0  0  0  0  0  0  0  0  0
    2.0000   -3.8415    0.0000 C   0  0  0  0  0  0  0  0  0  0  0  0
    8.1886    2.6283    0.0000 C   0  0  0  0  0  0  0  0  0  0  0  0
    9.8349    2.0902    0.0000 C   0  0  0  0  0  0  0  0  0  0  0  0
    8.4993    3.5788    0.0000 C   0  0  0  0  0  0  0  0  0  0  0  0
   10.1456    3.0407    0.0000 C   0  0  0  0  0  0  0  0  0  0  0  0
    9.4778    3.7850    0.0000 C   0  0  0  0  0  0  0  0  0  0  0  0
    4.9684   -0.9666    0.0000 H   0  0  0  0  0  0  0  0  0  0  0  0
    4.3751   -1.4989    0.0000 H   0  0  0  0  0  0  0  0  0  0  0  0
    5.9880   -1.9997    0.0000 H   0  0  0  0  0  0  0  0  0  0  0  0
    6.5813   -1.4674    0.0000 H   0  0  0  0  0  0  0  0  0  0  0  0
    6.2575    0.1902    0.0000 H   0  0  0  0  0  0  0  0  0  0  0  0
    5.6643   -0.3421    0.0000 H   0  0  0  0  0  0  0  0  0  0  0  0
    5.8819   -3.3415    0.0000 H   0  0  0  0  0  0  0  0  0  0  0  0
    4.8709   -4.7355    0.0000 H   0  0  0  0  0  0  0  0  0  0  0  0
    8.5663    0.3138    0.0000 H   0  0  0  0  0  0  0  0  0  0  0  0
    9.1596    0.8461    0.0000 H   0  0  0  0  0  0  0  0  0  0  0  0
    2.8660   -1.7215    0.0000 H   0  0  0  0  0  0  0  0  0  0  0  0
    2.8660   -4.9615    0.0000 H   0  0  0  0  0  0  0  0  0  0  0  0
    7.3609    1.8856    0.0000 H   0  0  0  0  0  0  0  0  0  0  0  0
    6.4854    1.9330    0.0000 H   0  0  0  0  0  0  0  0  0  0  0  0
    6.4380    1.0575    0.0000 H   0  0  0  0  0  0  0  0  0  0  0  0
    1.4631   -2.5315    0.0000 H   0  0  0  0  0  0  0  0  0  0  0  0
    1.4631   -4.1515    0.0000 H   0  0  0  0  0  0  0  0  0  0  0  0
    7.5819    2.5004    0.0000 H   0  0  0  0  0  0  0  0  0  0  0  0
   10.2490    1.6287    0.0000 H   0  0  0  0  0  0  0  0  0  0  0  0
    8.0852    4.0403    0.0000 H   0  0  0  0  0  0  0  0  0  0  0  0
   10.7523    3.1686    0.0000 H   0  0  0  0  0  0  0  0  0  0  0  0
  1 24  1  0  0  0  0
  2 12  2  0  0  0  0
  3 10  1  0  0  0  0
  3 11  1  0  0  0  0
  3 32  1  0  0  0  0
  4 12  1  0  0  0  0
  4 13  1  0  0  0  0
  4 17  1  0  0  0  0
  5  6  1  0  0  0  0
  5  7  1  0  0  0  0
  5 25  1  0  0  0  0
  5 26  1  0  0  0  0
  6  8  1  0  0  0  0
  6 27  1  0  0  0  0
  6 28  1  0  0  0  0
  7  9  1  0  0  0  0
  7 11  2  0  0  0  0
  8 12  1  0  0  0  0
  8 29  1  0  0  0  0
  8 30  1  0  0  0  0
  9 10  1  0  0  0  0
  9 14  2  0  0  0  0
 10 15  2  0  0  0  0
 11 31  1  0  0  0  0
 13 16  1  0  0  0  0
 13 33  1  0  0  0  0
 13 34  1  0  0  0  0
 14 18  1  0  0  0  0
 14 35  1  0  0  0  0
 15 19  1  0  0  0  0
 15 36  1  0  0  0  0
 16 20  2  0  0  0  0
 16 21  1  0  0  0  0
 17 37  1  0  0  0  0
 17 38  1  0  0  0  0
 17 39  1  0  0  0  0
 18 19  2  0  0  0  0
 18 40  1  0  0  0  0
 19 41  1  0  0  0  0
 20 22  1  0  0  0  0
 20 42  1  0  0  0  0
 21 23  2  0  0  0  0
 21 43  1  0  0  0  0
 22 24  2  0  0  0  0
 22 44  1  0  0  0  0
 23 24  1  0  0  0  0
 23 45  1  0  0  0  0
M  END
> <PUBCHEM_COMPOUND_CID>
31986793

> <PUBCHEM_COMPOUND_CANONICALIZED>
1

> <PUBCHEM_CACTVS_COMPLEXITY>
408

> <PUBCHEM_CACTVS_HBOND_ACCEPTOR>
1

> <PUBCHEM_CACTVS_HBOND_DONOR>
1

> <PUBCHEM_CACTVS_ROTATABLE_BOND>
6

> <PUBCHEM_CACTVS_SUBSKEYS>
AAADceB7IAAEAAAAAAAAAAAAAAAAAWAAAAAwYAAAAAAAAFgB9AAAHgIQAAAADArBniQ+wPPJkACoAzV3VACCgCAxByAI2aE4ZpgIIPLBk5GEIAhglgDIyAcYiMCOhAAAAAACAAAIAAAAAAQAAAAAAAAAAA==

> <PUBCHEM_IUPAC_OPENEYE_NAME>
N-[(4-chlorophenyl)methyl]-4-(1H-indol-3-yl)-N-methyl-butanamide

> <PUBCHEM_IUPAC_CAS_NAME>
N-[(4-chlorophenyl)methyl]-4-(1H-indol-3-yl)-N-methylbutanamide

> <PUBCHEM_IUPAC_NAME>
N-[(4-chlorophenyl)methyl]-4-(1H-indol-3-yl)-N-methylbutanamide

> <PUBCHEM_IUPAC_SYSTEMATIC_NAME>
N-[(4-chlorophenyl)methyl]-4-(1H-indol-3-yl)-N-methyl-butanamide

> <PUBCHEM_IUPAC_TRADITIONAL_NAME>
N-(4-chlorobenzyl)-4-(1H-indol-3-yl)-N-methyl-butyramide

> <PUBCHEM_IUPAC_INCHI>
InChI=1S/C20H21ClN2O/c1-23(14-15-9-11-17(21)12-10-15)20(24)8-4-5-16-13-22-19-7-3-2-6-18(16)19/h2-3,6-7,9-13,22H,4-5,8,14H2,1H3

> <PUBCHEM_IUPAC_INCHIKEY>
DDXMLNKHBYRGDF-UHFFFAOYSA-N

> <PUBCHEM_XLOGP3>
4.4

> <PUBCHEM_EXACT_MASS>
340.134241

> <PUBCHEM_MOLECULAR_FORMULA>
C20H21ClN2O

> <PUBCHEM_MOLECULAR_WEIGHT>
340.84654

> <PUBCHEM_OPENEYE_CAN_SMILES>
CN(CC1=CC=C(C=C1)Cl)C(=O)CCCC2=CNC3=CC=CC=C32

> <PUBCHEM_OPENEYE_ISO_SMILES>
CN(CC1=CC=C(C=C1)Cl)C(=O)CCCC2=CNC3=CC=CC=C32

> <PUBCHEM_CACTVS_TPSA>
36.1

> <PUBCHEM_MONOISOTOPIC_WEIGHT>
340.134241

> <PUBCHEM_TOTAL_CHARGE>
0

> <PUBCHEM_HEAVY_ATOM_COUNT>
24

> <PUBCHEM_ATOM_DEF_STEREO_COUNT>
0

> <PUBCHEM_ATOM_UDEF_STEREO_COUNT>
0

> <PUBCHEM_BOND_DEF_STEREO_COUNT>
0

> <PUBCHEM_BOND_UDEF_STEREO_COUNT>
0

> <PUBCHEM_ISOTOPIC_ATOM_COUNT>
0

> <PUBCHEM_COMPONENT_COUNT>
1

> <PUBCHEM_CACTVS_TAUTO_COUNT>
1

> <PUBCHEM_COORDINATE_TYPE>
1
5
255

> <PUBCHEM_BONDANNOTATIONS>
10  15  8
14  18  8
15  19  8
16  20  8
16  21  8
18  19  8
20  22  8
21  23  8
22  24  8
23  24  8
3  10  8
3  11  8
7  11  8
7  9  8
9  10  8
9  14  8

$$$$
31988024
  -OEChem-03061302162D

 36 38  0     0  0  0  0  0  0999 V2000
    9.7619   -2.8621    0.0000 Cl  0  0  0  0  0  0  0  0  0  0  0  0
    6.7619    2.3341    0.0000 O   0  0  0  0  0  0  0  0  0  0  0  0
    6.7619    0.6020    0.0000 N   0  0  0  0  0  0  0  0  0  0  0  0
    4.6783    2.2728    0.0000 N   0  0  0  0  0  0  0  0  0  0  0  0
    5.2619    1.4680    0.0000 C   0  0  0  0  0  0  0  0  0  0  0  0
    3.7321    1.9680    0.0000 C   0  0  0  0  0  0  0  0  0  0  0  0
    3.7321    0.9680    0.0000 C   0  0  0  0  0  0  0  0  0  0  0  0
    7.7619    0.6020    0.0000 C   0  0  0  0  0  0  0  0  0  0  0  0
    6.2619    1.4680    0.0000 C   0  0  0  0  0  0  0  0  0  0  0  0
    4.6783    0.6633    0.0000 C   0  0  0  0  0  0  0  0  0  0  0  0
    8.2619   -0.2640    0.0000 C   0  0  0  0  0  0  0  0  0  0  0  0
    2.8660    2.4680    0.0000 C   0  0  0  0  0  0  0  0  0  0  0  0
    2.8660    0.4680    0.0000 C   0  0  0  0  0  0  0  0  0  0  0  0
    6.2619   -0.2640    0.0000 C   0  0  0  0  0  0  0  0  0  0  0  0
    7.7619   -1.1300    0.0000 C   0  0  0  0  0  0  0  0  0  0  0  0
    9.2619   -0.2640    0.0000 C   0  0  0  0  0  0  0  0  0  0  0  0
    2.0000    1.9680    0.0000 C   0  0  0  0  0  0  0  0  0  0  0  0
    2.0000    0.9680    0.0000 C   0  0  0  0  0  0  0  0  0  0  0  0
    8.2619   -1.9961    0.0000 C   0  0  0  0  0  0  0  0  0  0  0  0
    9.7619   -1.1300    0.0000 C   0  0  0  0  0  0  0  0  0  0  0  0
    9.2619   -1.9961    0.0000 C   0  0  0  0  0  0  0  0  0  0  0  0
    8.3445    0.8141    0.0000 H   0  0  0  0  0  0  0  0  0  0  0  0
    7.6542    1.2126    0.0000 H   0  0  0  0  0  0  0  0  0  0  0  0
    4.8709    2.8621    0.0000 H   0  0  0  0  0  0  0  0  0  0  0  0
    4.8709    0.0740    0.0000 H   0  0  0  0  0  0  0  0  0  0  0  0
    2.8660    3.0880    0.0000 H   0  0  0  0  0  0  0  0  0  0  0  0
    2.8660   -0.1520    0.0000 H   0  0  0  0  0  0  0  0  0  0  0  0
    5.7249    0.0460    0.0000 H   0  0  0  0  0  0  0  0  0  0  0  0
    5.9519   -0.8010    0.0000 H   0  0  0  0  0  0  0  0  0  0  0  0
    6.7988   -0.5740    0.0000 H   0  0  0  0  0  0  0  0  0  0  0  0
    7.1419   -1.1300    0.0000 H   0  0  0  0  0  0  0  0  0  0  0  0
    9.5719    0.2729    0.0000 H   0  0  0  0  0  0  0  0  0  0  0  0
    1.4631    2.2780    0.0000 H   0  0  0  0  0  0  0  0  0  0  0  0
    1.4631    0.6580    0.0000 H   0  0  0  0  0  0  0  0  0  0  0  0
    7.9519   -2.5330    0.0000 H   0  0  0  0  0  0  0  0  0  0  0  0
   10.3819   -1.1300    0.0000 H   0  0  0  0  0  0  0  0  0  0  0  0
  1 21  1  0  0  0  0
  2  9  2  0  0  0  0
  3  8  1  0  0  0  0
  3  9  1  0  0  0  0
  3 14  1  0  0  0  0
  4  5  1  0  0  0  0
  4  6  1  0  0  0  0
  4 24  1  0  0  0  0
  5  9  1  0  0  0  0
  5 10  2  0  0  0  0
  6  7  1  0  0  0  0
  6 12  2  0  0  0  0
  7 10  1  0  0  0  0
  7 13  2  0  0  0  0
  8 11  1  0  0  0  0
  8 22  1  0  0  0  0
  8 23  1  0  0  0  0
 10 25  1  0  0  0  0
 11 15  2  0  0  0  0
 11 16  1  0  0  0  0
 12 17  1  0  0  0  0
 12 26  1  0  0  0  0
 13 18  1  0  0  0  0
 13 27  1  0  0  0  0
 14 28  1  0  0  0  0
 14 29  1  0  0  0  0
 14 30  1  0  0  0  0
 15 19  1  0  0  0  0
 15 31  1  0  0  0  0
 16 20  2  0  0  0  0
 16 32  1  0  0  0  0
 17 18  2  0  0  0  0
 17 33  1  0  0  0  0
 18 34  1  0  0  0  0
 19 21  2  0  0  0  0
 19 35  1  0  0  0  0
 20 21  1  0  0  0  0
 20 36  1  0  0  0  0
M  END
> <PUBCHEM_COMPOUND_CID>
31988024

> <PUBCHEM_COMPOUND_CANONICALIZED>
1

> <PUBCHEM_CACTVS_COMPLEXITY>
368

> <PUBCHEM_CACTVS_HBOND_ACCEPTOR>
1

> <PUBCHEM_CACTVS_HBOND_DONOR>
1

> <PUBCHEM_CACTVS_ROTATABLE_BOND>
3

> <PUBCHEM_CACTVS_SUBSKEYS>
AAADccB7IAAEAAAAAAAAAAAAAAAAAWAAAAAwYAAAAAAAAFgB9AAAHgIQAAAADArBniQywPPJkACoAyVyVACCgCAnByAImSG4ZtgIYPLBl7GUIQhglgDIyYcYiYCeBAAAAAACAAAIAAAAAAQAAAAAAAAAAA==

> <PUBCHEM_IUPAC_OPENEYE_NAME>
N-[(4-chlorophenyl)methyl]-N-methyl-1H-indole-2-carboxamide

> <PUBCHEM_IUPAC_CAS_NAME>
N-[(4-chlorophenyl)methyl]-N-methyl-1H-indole-2-carboxamide

> <PUBCHEM_IUPAC_NAME>
N-[(4-chlorophenyl)methyl]-N-methyl-1H-indole-2-carboxamide

> <PUBCHEM_IUPAC_SYSTEMATIC_NAME>
N-[(4-chlorophenyl)methyl]-N-methyl-1H-indole-2-carboxamide

> <PUBCHEM_IUPAC_TRADITIONAL_NAME>
N-(4-chlorobenzyl)-N-methyl-1H-indole-2-carboxamide

> <PUBCHEM_IUPAC_INCHI>
InChI=1S/C17H15ClN2O/c1-20(11-12-6-8-14(18)9-7-12)17(21)16-10-13-4-2-3-5-15(13)19-16/h2-10,19H,11H2,1H3

> <PUBCHEM_IUPAC_INCHIKEY>
MLIOQBFFMAXJQG-UHFFFAOYSA-N

> <PUBCHEM_XLOGP3>
4.4

> <PUBCHEM_EXACT_MASS>
298.087291

> <PUBCHEM_MOLECULAR_FORMULA>
C17H15ClN2O

> <PUBCHEM_MOLECULAR_WEIGHT>
298.7668

> <PUBCHEM_OPENEYE_CAN_SMILES>
CN(CC1=CC=C(C=C1)Cl)C(=O)C2=CC3=CC=CC=C3N2

> <PUBCHEM_OPENEYE_ISO_SMILES>
CN(CC1=CC=C(C=C1)Cl)C(=O)C2=CC3=CC=CC=C3N2

> <PUBCHEM_CACTVS_TPSA>
36.1

> <PUBCHEM_MONOISOTOPIC_WEIGHT>
298.087291

> <PUBCHEM_TOTAL_CHARGE>
0

> <PUBCHEM_HEAVY_ATOM_COUNT>
21

> <PUBCHEM_ATOM_DEF_STEREO_COUNT>
0

> <PUBCHEM_ATOM_UDEF_STEREO_COUNT>
0

> <PUBCHEM_BOND_DEF_STEREO_COUNT>
0

> <PUBCHEM_BOND_UDEF_STEREO_COUNT>
0

> <PUBCHEM_ISOTOPIC_ATOM_COUNT>
0

> <PUBCHEM_COMPONENT_COUNT>
1

> <PUBCHEM_CACTVS_TAUTO_COUNT>
6

> <PUBCHEM_COORDINATE_TYPE>
1
5
255

> <PUBCHEM_BONDANNOTATIONS>
11  15  8
11  16  8
12  17  8
13  18  8
15  19  8
16  20  8
17  18  8
19  21  8
20  21  8
4  5  8
4  6  8
5  10  8
6  12  8
6  7  8
7  10  8
7  13  8

$$$$
