26866777
  -OEChem-03221309312D

 50 54  0     0  0  0  0  0  0999 V2000
    3.6730    1.0409    0.0000 O   0  0  0  0  0  0  0  0  0  0  0  0
    4.5390   -0.4591    0.0000 N   0  0  0  0  0  0  0  0  0  0  0  0
    4.9050    3.5707    0.0000 N   0  0  0  0  0  0  0  0  0  0  0  0
    3.6730   -1.9591    0.0000 C   0  0  0  0  0  0  0  0  0  0  0  0
    4.5092   -3.4074    0.0000 C   0  0  0  0  0  0  0  0  0  0  0  0
    2.8368   -3.4074    0.0000 C   0  0  0  0  0  0  0  0  0  0  0  0
    2.9819   -3.8425    0.0000 C   0  0  0  0  0  0  0  0  0  0  0  0
    4.5092   -2.4419    0.0000 C   0  0  0  0  0  0  0  0  0  0  0  0
    2.8368   -2.4419    0.0000 C   0  0  0  0  0  0  0  0  0  0  0  0
    2.9819   -2.7972    0.0000 C   0  0  0  0  0  0  0  0  0  0  0  0
    3.6730   -3.7102    0.0000 C   0  0  0  0  0  0  0  0  0  0  0  0
    3.8876   -4.3193    0.0000 C   0  0  0  0  0  0  0  0  0  0  0  0
    2.0000   -3.8902    0.0000 C   0  0  0  0  0  0  0  0  0  0  0  0
    3.6730   -0.9591    0.0000 C   0  0  0  0  0  0  0  0  0  0  0  0
    4.5390    0.5409    0.0000 C   0  0  0  0  0  0  0  0  0  0  0  0
    5.4050    1.0409    0.0000 C   0  0  0  0  0  0  0  0  0  0  0  0
    5.4050    2.0409    0.0000 C   0  0  0  0  0  0  0  0  0  0  0  0
    6.2098    2.6245    0.0000 C   0  0  0  0  0  0  0  0  0  0  0  0
    4.6003    2.6245    0.0000 C   0  0  0  0  0  0  0  0  0  0  0  0
    5.8991    3.5750    0.0000 C   0  0  0  0  0  0  0  0  0  0  0  0
    7.1883    2.4183    0.0000 C   0  0  0  0  0  0  0  0  0  0  0  0
    6.5669    4.3193    0.0000 C   0  0  0  0  0  0  0  0  0  0  0  0
    7.8561    3.1626    0.0000 C   0  0  0  0  0  0  0  0  0  0  0  0
    7.5454    4.1131    0.0000 C   0  0  0  0  0  0  0  0  0  0  0  0
    2.8478   -4.4478    0.0000 H   0  0  0  0  0  0  0  0  0  0  0  0
    2.8912   -4.0250    0.0000 H   0  0  0  0  0  0  0  0  0  0  0  0
    5.1016   -3.5902    0.0000 H   0  0  0  0  0  0  0  0  0  0  0  0
    5.1198   -2.5496    0.0000 H   0  0  0  0  0  0  0  0  0  0  0  0
    4.7212   -1.8593    0.0000 H   0  0  0  0  0  0  0  0  0  0  0  0
    2.6247   -1.8593    0.0000 H   0  0  0  0  0  0  0  0  0  0  0  0
    2.2262   -2.5496    0.0000 H   0  0  0  0  0  0  0  0  0  0  0  0
    2.6383   -2.2812    0.0000 H   0  0  0  0  0  0  0  0  0  0  0  0
    2.3885   -2.9768    0.0000 H   0  0  0  0  0  0  0  0  0  0  0  0
    1.5188   -3.4993    0.0000 H   0  0  0  0  0  0  0  0  0  0  0  0
    1.8068   -4.4793    0.0000 H   0  0  0  0  0  0  0  0  0  0  0  0
    3.5782   -4.8566    0.0000 H   0  0  0  0  0  0  0  0  0  0  0  0
    4.4127   -4.6489    0.0000 H   0  0  0  0  0  0  0  0  0  0  0  0
    3.3030   -4.2077    0.0000 H   0  0  0  0  0  0  0  0  0  0  0  0
    4.0430   -4.2077    0.0000 H   0  0  0  0  0  0  0  0  0  0  0  0
    3.4609   -0.3765    0.0000 H   0  0  0  0  0  0  0  0  0  0  0  0
    3.0624   -1.0668    0.0000 H   0  0  0  0  0  0  0  0  0  0  0  0
    5.0760   -0.7691    0.0000 H   0  0  0  0  0  0  0  0  0  0  0  0
    5.6171    0.4583    0.0000 H   0  0  0  0  0  0  0  0  0  0  0  0
    6.0156    1.1486    0.0000 H   0  0  0  0  0  0  0  0  0  0  0  0
    4.0110    2.4319    0.0000 H   0  0  0  0  0  0  0  0  0  0  0  0
    4.5389    4.0710    0.0000 H   0  0  0  0  0  0  0  0  0  0  0  0
    7.3809    1.8290    0.0000 H   0  0  0  0  0  0  0  0  0  0  0  0
    6.3743    4.9086    0.0000 H   0  0  0  0  0  0  0  0  0  0  0  0
    8.4628    3.0347    0.0000 H   0  0  0  0  0  0  0  0  0  0  0  0
    7.9595    4.5746    0.0000 H   0  0  0  0  0  0  0  0  0  0  0  0
  1 15  2  0  0  0  0
  2 14  1  0  0  0  0
  2 15  1  0  0  0  0
  2 42  1  0  0  0  0
  3 19  1  0  0  0  0
  3 20  1  0  0  0  0
  3 46  1  0  0  0  0
  4  8  1  0  0  0  0
  4  9  1  0  0  0  0
  4 10  1  0  0  0  0
  4 14  1  0  0  0  0
  5  8  1  0  0  0  0
  5 11  1  0  0  0  0
  5 12  1  0  0  0  0
  5 27  1  0  0  0  0
  6  9  1  0  0  0  0
  6 11  1  0  0  0  0
  6 13  1  0  0  0  0
  6 26  1  0  0  0  0
  7 10  1  0  0  0  0
  7 12  1  0  0  0  0
  7 13  1  0  0  0  0
  7 25  1  0  0  0  0
  8 28  1  0  0  0  0
  8 29  1  0  0  0  0
  9 30  1  0  0  0  0
  9 31  1  0  0  0  0
 10 32  1  0  0  0  0
 10 33  1  0  0  0  0
 11 38  1  0  0  0  0
 11 39  1  0  0  0  0
 12 36  1  0  0  0  0
 12 37  1  0  0  0  0
 13 34  1  0  0  0  0
 13 35  1  0  0  0  0
 14 40  1  0  0  0  0
 14 41  1  0  0  0  0
 15 16  1  0  0  0  0
 16 17  1  0  0  0  0
 16 43  1  0  0  0  0
 16 44  1  0  0  0  0
 17 18  1  0  0  0  0
 17 19  2  0  0  0  0
 18 20  1  0  0  0  0
 18 21  2  0  0  0  0
 19 45  1  0  0  0  0
 20 22  2  0  0  0  0
 21 23  1  0  0  0  0
 21 47  1  0  0  0  0
 22 24  1  0  0  0  0
 22 48  1  0  0  0  0
 23 24  2  0  0  0  0
 23 49  1  0  0  0  0
 24 50  1  0  0  0  0
M  END
> <PUBCHEM_COMPOUND_CID>
26866777

> <PUBCHEM_COMPOUND_CANONICALIZED>
1

> <PUBCHEM_CACTVS_COMPLEXITY>
461

> <PUBCHEM_CACTVS_HBOND_ACCEPTOR>
1

> <PUBCHEM_CACTVS_HBOND_DONOR>
2

> <PUBCHEM_CACTVS_ROTATABLE_BOND>
4

> <PUBCHEM_CACTVS_SUBSKEYS>
AAADceB7IAAAAAAAAAAAAAAAAAAAAWAAAAAwYMGDAAAAAFgB8AAAHgAQAAAADwjBngQ8wPLJkACoAzV3VACCgCAxAiAI2aE4ZJgIIPLAlZGEIAhglgDIyAccicCfgAAAAAACAAAAAAQAAAQAAAAAAAAAAA==

> <PUBCHEM_IUPAC_OPENEYE_NAME>
N-(1-adamantylmethyl)-2-(1H-indol-3-yl)acetamide

> <PUBCHEM_IUPAC_CAS_NAME>
N-(1-adamantylmethyl)-2-(1H-indol-3-yl)acetamide

> <PUBCHEM_IUPAC_NAME>
N-(1-adamantylmethyl)-2-(1H-indol-3-yl)acetamide

> <PUBCHEM_IUPAC_SYSTEMATIC_NAME>
N-(1-adamantylmethyl)-2-(1H-indol-3-yl)ethanamide

> <PUBCHEM_IUPAC_TRADITIONAL_NAME>
N-(1-adamantylmethyl)-2-(1H-indol-3-yl)acetamide

> <PUBCHEM_IUPAC_INCHI>
InChI=1S/C21H26N2O/c24-20(8-17-12-22-19-4-2-1-3-18(17)19)23-13-21-9-14-5-15(10-21)7-16(6-14)11-21/h1-4,12,14-16,22H,5-11,13H2,(H,23,24)

> <PUBCHEM_IUPAC_INCHIKEY>
CUCUPQHTULPXDB-UHFFFAOYSA-N

> <PUBCHEM_XLOGP3>
4.1

> <PUBCHEM_EXACT_MASS>
322.204513

> <PUBCHEM_MOLECULAR_FORMULA>
C21H26N2O

> <PUBCHEM_MOLECULAR_WEIGHT>
322.44394

> <PUBCHEM_OPENEYE_CAN_SMILES>
C1C2CC3CC1CC(C2)(C3)CNC(=O)CC4=CNC5=CC=CC=C54

> <PUBCHEM_OPENEYE_ISO_SMILES>
C1C2CC3CC1CC(C2)(C3)CNC(=O)CC4=CNC5=CC=CC=C54

> <PUBCHEM_CACTVS_TPSA>
44.9

> <PUBCHEM_MONOISOTOPIC_WEIGHT>
322.204513

> <PUBCHEM_TOTAL_CHARGE>
0

> <PUBCHEM_HEAVY_ATOM_COUNT>
24

> <PUBCHEM_ATOM_DEF_STEREO_COUNT>
0

> <PUBCHEM_ATOM_UDEF_STEREO_COUNT>
0

> <PUBCHEM_BOND_DEF_STEREO_COUNT>
0

> <PUBCHEM_BOND_UDEF_STEREO_COUNT>
0

> <PUBCHEM_ISOTOPIC_ATOM_COUNT>
0

> <PUBCHEM_COMPONENT_COUNT>
1

> <PUBCHEM_CACTVS_TAUTO_COUNT>
2

> <PUBCHEM_COORDINATE_TYPE>
1
5
255

> <PUBCHEM_BONDANNOTATIONS>
17  18  8
17  19  8
18  20  8
18  21  8
20  22  8
21  23  8
22  24  8
23  24  8
3  19  8
3  20  8

$$$$
