38155727
  -OEChem-05231305202D

 31 32  0     0  0  0  0  0  0999 V2000
    2.8660   -3.6012    0.0000 I   0  0  0  0  0  0  0  0  0  0  0  0
    4.5981    0.3988    0.0000 O   0  0  0  0  0  0  0  0  0  0  0  0
    3.7320    1.8988    0.0000 N   0  0  0  0  0  0  0  0  0  0  0  0
    2.8660    0.3988    0.0000 N   0  0  0  0  0  0  0  0  0  0  0  0
    4.5981    2.3988    0.0000 C   0  0  0  0  0  0  0  0  0  0  0  0
    5.5116    1.9920    0.0000 C   0  0  0  0  0  0  0  0  0  0  0  0
    4.7026    3.3933    0.0000 C   0  0  0  0  0  0  0  0  0  0  0  0
    6.1808    2.7352    0.0000 C   0  0  0  0  0  0  0  0  0  0  0  0
    5.6808    3.6012    0.0000 C   0  0  0  0  0  0  0  0  0  0  0  0
    3.7320    0.8988    0.0000 C   0  0  0  0  0  0  0  0  0  0  0  0
    2.8660   -0.6012    0.0000 C   0  0  0  0  0  0  0  0  0  0  0  0
    2.0000   -1.1012    0.0000 C   0  0  0  0  0  0  0  0  0  0  0  0
    3.7320   -1.1012    0.0000 C   0  0  0  0  0  0  0  0  0  0  0  0
    2.0000   -2.1012    0.0000 C   0  0  0  0  0  0  0  0  0  0  0  0
    3.7320   -2.1012    0.0000 C   0  0  0  0  0  0  0  0  0  0  0  0
    2.8660   -2.6012    0.0000 C   0  0  0  0  0  0  0  0  0  0  0  0
    4.0781    2.7365    0.0000 H   0  0  0  0  0  0  0  0  0  0  0  0
    5.2016    1.4551    0.0000 H   0  0  0  0  0  0  0  0  0  0  0  0
    6.0132    1.6276    0.0000 H   0  0  0  0  0  0  0  0  0  0  0  0
    4.6378    4.0099    0.0000 H   0  0  0  0  0  0  0  0  0  0  0  0
    4.0826    3.3933    0.0000 H   0  0  0  0  0  0  0  0  0  0  0  0
    6.5956    2.2744    0.0000 H   0  0  0  0  0  0  0  0  0  0  0  0
    6.6823    3.0996    0.0000 H   0  0  0  0  0  0  0  0  0  0  0  0
    6.2472    3.8534    0.0000 H   0  0  0  0  0  0  0  0  0  0  0  0
    5.4892    4.1909    0.0000 H   0  0  0  0  0  0  0  0  0  0  0  0
    3.1951    2.2088    0.0000 H   0  0  0  0  0  0  0  0  0  0  0  0
    2.3291    0.7088    0.0000 H   0  0  0  0  0  0  0  0  0  0  0  0
    1.4631   -0.7912    0.0000 H   0  0  0  0  0  0  0  0  0  0  0  0
    4.2690   -0.7912    0.0000 H   0  0  0  0  0  0  0  0  0  0  0  0
    1.4631   -2.4112    0.0000 H   0  0  0  0  0  0  0  0  0  0  0  0
    4.2690   -2.4112    0.0000 H   0  0  0  0  0  0  0  0  0  0  0  0
  1 16  1  0  0  0  0
  2 10  2  0  0  0  0
  3  5  1  0  0  0  0
  3 10  1  0  0  0  0
  3 26  1  0  0  0  0
  4 10  1  0  0  0  0
  4 11  1  0  0  0  0
  4 27  1  0  0  0  0
  5  6  1  0  0  0  0
  5  7  1  0  0  0  0
  5 17  1  0  0  0  0
  6  8  1  0  0  0  0
  6 18  1  0  0  0  0
  6 19  1  0  0  0  0
  7  9  1  0  0  0  0
  7 20  1  0  0  0  0
  7 21  1  0  0  0  0
  8  9  1  0  0  0  0
  8 22  1  0  0  0  0
  8 23  1  0  0  0  0
  9 24  1  0  0  0  0
  9 25  1  0  0  0  0
 11 12  2  0  0  0  0
 11 13  1  0  0  0  0
 12 14  1  0  0  0  0
 12 28  1  0  0  0  0
 13 15  2  0  0  0  0
 13 29  1  0  0  0  0
 14 16  2  0  0  0  0
 14 30  1  0  0  0  0
 15 16  1  0  0  0  0
 15 31  1  0  0  0  0
M  END
> <PUBCHEM_COMPOUND_CID>
38155727

> <PUBCHEM_COMPOUND_CANONICALIZED>
1

> <PUBCHEM_CACTVS_COMPLEXITY>
233

> <PUBCHEM_CACTVS_HBOND_ACCEPTOR>
1

> <PUBCHEM_CACTVS_HBOND_DONOR>
2

> <PUBCHEM_CACTVS_ROTATABLE_BOND>
2

> <PUBCHEM_CACTVS_SUBSKEYS>
AAADccBzIAAAAgAAAAAAAAAAAAAAAYAAAAAwAAAAAAAAAAABAAAAHgAwAAAACCjDEAQxwILAAACIACRCUACCAAAhAgAIiIAIZIiIICLAkZGEIAholgJIyCcQAAAAAAAAAAAAAAAAAAAAAAAAAAAAAAAAAA==

> <PUBCHEM_IUPAC_OPENEYE_NAME>
1-cyclopentyl-3-(4-iodophenyl)urea

> <PUBCHEM_IUPAC_CAS_NAME>
1-cyclopentyl-3-(4-iodophenyl)urea

> <PUBCHEM_IUPAC_NAME>
1-cyclopentyl-3-(4-iodophenyl)urea

> <PUBCHEM_IUPAC_SYSTEMATIC_NAME>
1-cyclopentyl-3-(4-iodophenyl)urea

> <PUBCHEM_IUPAC_TRADITIONAL_NAME>
1-cyclopentyl-3-(4-iodophenyl)urea

> <PUBCHEM_IUPAC_INCHI>
InChI=1S/C12H15IN2O/c13-9-5-7-11(8-6-9)15-12(16)14-10-3-1-2-4-10/h5-8,10H,1-4H2,(H2,14,15,16)

> <PUBCHEM_IUPAC_INCHIKEY>
XXCYKVCQMHESQS-UHFFFAOYSA-N

> <PUBCHEM_XLOGP3>
3.3

> <PUBCHEM_EXACT_MASS>
330.022911

> <PUBCHEM_MOLECULAR_FORMULA>
C12H15IN2O

> <PUBCHEM_MOLECULAR_WEIGHT>
330.16477

> <PUBCHEM_OPENEYE_CAN_SMILES>
C1CCC(C1)NC(=O)NC2=CC=C(C=C2)I

> <PUBCHEM_OPENEYE_ISO_SMILES>
C1CCC(C1)NC(=O)NC2=CC=C(C=C2)I

> <PUBCHEM_CACTVS_TPSA>
41.1

> <PUBCHEM_MONOISOTOPIC_WEIGHT>
330.022911

> <PUBCHEM_TOTAL_CHARGE>
0

> <PUBCHEM_HEAVY_ATOM_COUNT>
16

> <PUBCHEM_ATOM_DEF_STEREO_COUNT>
0

> <PUBCHEM_ATOM_UDEF_STEREO_COUNT>
0

> <PUBCHEM_BOND_DEF_STEREO_COUNT>
0

> <PUBCHEM_BOND_UDEF_STEREO_COUNT>
0

> <PUBCHEM_ISOTOPIC_ATOM_COUNT>
0

> <PUBCHEM_COMPONENT_COUNT>
1

> <PUBCHEM_CACTVS_TAUTO_COUNT>
3

> <PUBCHEM_COORDINATE_TYPE>
1
5
255

> <PUBCHEM_BONDANNOTATIONS>
11  12  8
11  13  8
12  14  8
13  15  8
14  16  8
15  16  8

$$$$
38158618
  -OEChem-05231305202D

 31 32  0     0  0  0  0  0  0999 V2000
    2.0000   -3.1012    0.0000 I   0  0  0  0  0  0  0  0  0  0  0  0
    5.4641   -0.1012    0.0000 O   0  0  0  0  0  0  0  0  0  0  0  0
    4.5981    1.3988    0.0000 N   0  0  0  0  0  0  0  0  0  0  0  0
    3.7320   -0.1012    0.0000 N   0  0  0  0  0  0  0  0  0  0  0  0
    5.4641    1.8988    0.0000 C   0  0  0  0  0  0  0  0  0  0  0  0
    6.3776    1.4921    0.0000 C   0  0  0  0  0  0  0  0  0  0  0  0
    5.5686    2.8933    0.0000 C   0  0  0  0  0  0  0  0  0  0  0  0
    7.0468    2.2352    0.0000 C   0  0  0  0  0  0  0  0  0  0  0  0
    6.5468    3.1012    0.0000 C   0  0  0  0  0  0  0  0  0  0  0  0
    4.5981    0.3988    0.0000 C   0  0  0  0  0  0  0  0  0  0  0  0
    3.7320   -1.1012    0.0000 C   0  0  0  0  0  0  0  0  0  0  0  0
    2.8660   -1.6012    0.0000 C   0  0  0  0  0  0  0  0  0  0  0  0
    4.5981   -1.6012    0.0000 C   0  0  0  0  0  0  0  0  0  0  0  0
    2.8660   -2.6012    0.0000 C   0  0  0  0  0  0  0  0  0  0  0  0
    4.5981   -2.6012    0.0000 C   0  0  0  0  0  0  0  0  0  0  0  0
    3.7320   -3.1012    0.0000 C   0  0  0  0  0  0  0  0  0  0  0  0
    4.9441    2.2365    0.0000 H   0  0  0  0  0  0  0  0  0  0  0  0
    6.0677    0.9551    0.0000 H   0  0  0  0  0  0  0  0  0  0  0  0
    6.8792    1.1276    0.0000 H   0  0  0  0  0  0  0  0  0  0  0  0
    5.5038    3.5099    0.0000 H   0  0  0  0  0  0  0  0  0  0  0  0
    4.9486    2.8933    0.0000 H   0  0  0  0  0  0  0  0  0  0  0  0
    7.4616    1.7744    0.0000 H   0  0  0  0  0  0  0  0  0  0  0  0
    7.5484    2.5996    0.0000 H   0  0  0  0  0  0  0  0  0  0  0  0
    7.1132    3.3534    0.0000 H   0  0  0  0  0  0  0  0  0  0  0  0
    6.3552    3.6909    0.0000 H   0  0  0  0  0  0  0  0  0  0  0  0
    4.0611    1.7088    0.0000 H   0  0  0  0  0  0  0  0  0  0  0  0
    3.1951    0.2088    0.0000 H   0  0  0  0  0  0  0  0  0  0  0  0
    2.3291   -1.2912    0.0000 H   0  0  0  0  0  0  0  0  0  0  0  0
    5.1350   -1.2912    0.0000 H   0  0  0  0  0  0  0  0  0  0  0  0
    5.1350   -2.9112    0.0000 H   0  0  0  0  0  0  0  0  0  0  0  0
    3.7320   -3.7212    0.0000 H   0  0  0  0  0  0  0  0  0  0  0  0
  1 14  1  0  0  0  0
  2 10  2  0  0  0  0
  3  5  1  0  0  0  0
  3 10  1  0  0  0  0
  3 26  1  0  0  0  0
  4 10  1  0  0  0  0
  4 11  1  0  0  0  0
  4 27  1  0  0  0  0
  5  6  1  0  0  0  0
  5  7  1  0  0  0  0
  5 17  1  0  0  0  0
  6  8  1  0  0  0  0
  6 18  1  0  0  0  0
  6 19  1  0  0  0  0
  7  9  1  0  0  0  0
  7 20  1  0  0  0  0
  7 21  1  0  0  0  0
  8  9  1  0  0  0  0
  8 22  1  0  0  0  0
  8 23  1  0  0  0  0
  9 24  1  0  0  0  0
  9 25  1  0  0  0  0
 11 12  2  0  0  0  0
 11 13  1  0  0  0  0
 12 14  1  0  0  0  0
 12 28  1  0  0  0  0
 13 15  2  0  0  0  0
 13 29  1  0  0  0  0
 14 16  2  0  0  0  0
 15 16  1  0  0  0  0
 15 30  1  0  0  0  0
 16 31  1  0  0  0  0
M  END
> <PUBCHEM_COMPOUND_CID>
38158618

> <PUBCHEM_COMPOUND_CANONICALIZED>
1

> <PUBCHEM_CACTVS_COMPLEXITY>
241

> <PUBCHEM_CACTVS_HBOND_ACCEPTOR>
1

> <PUBCHEM_CACTVS_HBOND_DONOR>
2

> <PUBCHEM_CACTVS_ROTATABLE_BOND>
2

> <PUBCHEM_CACTVS_SUBSKEYS>
AAADccBzIAAAAgAAAAAAAAAAAAAAAYAAAAAwAAAAAAAAAAABAAAAHgAwAAAACCjDEAQxwILAAACIACRCUACCAAAhAgAIiIAIZIiIICLAkZGEIAholgJIyCcQAAAAAAAAAAAAAAAAAAAAAAAAAAAAAAAAAA==

> <PUBCHEM_IUPAC_OPENEYE_NAME>
1-cyclopentyl-3-(3-iodophenyl)urea

> <PUBCHEM_IUPAC_CAS_NAME>
1-cyclopentyl-3-(3-iodophenyl)urea

> <PUBCHEM_IUPAC_NAME>
1-cyclopentyl-3-(3-iodophenyl)urea

> <PUBCHEM_IUPAC_SYSTEMATIC_NAME>
1-cyclopentyl-3-(3-iodanylphenyl)urea

> <PUBCHEM_IUPAC_TRADITIONAL_NAME>
1-cyclopentyl-3-(3-iodophenyl)urea

> <PUBCHEM_IUPAC_INCHI>
InChI=1S/C12H15IN2O/c13-9-4-3-7-11(8-9)15-12(16)14-10-5-1-2-6-10/h3-4,7-8,10H,1-2,5-6H2,(H2,14,15,16)

> <PUBCHEM_IUPAC_INCHIKEY>
QPYXPNQTTKIESS-UHFFFAOYSA-N

> <PUBCHEM_XLOGP3>
3.3

> <PUBCHEM_EXACT_MASS>
330.022911

> <PUBCHEM_MOLECULAR_FORMULA>
C12H15IN2O

> <PUBCHEM_MOLECULAR_WEIGHT>
330.16477

> <PUBCHEM_OPENEYE_CAN_SMILES>
C1CCC(C1)NC(=O)NC2=CC(=CC=C2)I

> <PUBCHEM_OPENEYE_ISO_SMILES>
C1CCC(C1)NC(=O)NC2=CC(=CC=C2)I

> <PUBCHEM_CACTVS_TPSA>
41.1

> <PUBCHEM_MONOISOTOPIC_WEIGHT>
330.022911

> <PUBCHEM_TOTAL_CHARGE>
0

> <PUBCHEM_HEAVY_ATOM_COUNT>
16

> <PUBCHEM_ATOM_DEF_STEREO_COUNT>
0

> <PUBCHEM_ATOM_UDEF_STEREO_COUNT>
0

> <PUBCHEM_BOND_DEF_STEREO_COUNT>
0

> <PUBCHEM_BOND_UDEF_STEREO_COUNT>
0

> <PUBCHEM_ISOTOPIC_ATOM_COUNT>
0

> <PUBCHEM_COMPONENT_COUNT>
1

> <PUBCHEM_CACTVS_TAUTO_COUNT>
3

> <PUBCHEM_COORDINATE_TYPE>
1
5
255

> <PUBCHEM_BONDANNOTATIONS>
11  12  8
11  13  8
12  14  8
13  15  8
14  16  8
15  16  8

$$$$
38159532
  -OEChem-05231305202D

 31 32  0     0  0  0  0  0  0999 V2000
    5.4641   -3.1012    0.0000 Cl  0  0  0  0  0  0  0  0  0  0  0  0
    2.0000   -3.1012    0.0000 Cl  0  0  0  0  0  0  0  0  0  0  0  0
    5.4641   -0.1012    0.0000 O   0  0  0  0  0  0  0  0  0  0  0  0
    4.5981    1.3988    0.0000 N   0  0  0  0  0  0  0  0  0  0  0  0
    3.7320   -0.1012    0.0000 N   0  0  0  0  0  0  0  0  0  0  0  0
    5.4641    1.8988    0.0000 C   0  0  0  0  0  0  0  0  0  0  0  0
    6.3776    1.4921    0.0000 C   0  0  0  0  0  0  0  0  0  0  0  0
    5.5686    2.8933    0.0000 C   0  0  0  0  0  0  0  0  0  0  0  0
    7.0468    2.2352    0.0000 C   0  0  0  0  0  0  0  0  0  0  0  0
    6.5468    3.1012    0.0000 C   0  0  0  0  0  0  0  0  0  0  0  0
    4.5981    0.3988    0.0000 C   0  0  0  0  0  0  0  0  0  0  0  0
    3.7320   -1.1012    0.0000 C   0  0  0  0  0  0  0  0  0  0  0  0
    2.8660   -1.6012    0.0000 C   0  0  0  0  0  0  0  0  0  0  0  0
    4.5981   -1.6012    0.0000 C   0  0  0  0  0  0  0  0  0  0  0  0
    4.5981   -2.6012    0.0000 C   0  0  0  0  0  0  0  0  0  0  0  0
    2.8660   -2.6012    0.0000 C   0  0  0  0  0  0  0  0  0  0  0  0
    3.7320   -3.1012    0.0000 C   0  0  0  0  0  0  0  0  0  0  0  0
    4.9441    2.2365    0.0000 H   0  0  0  0  0  0  0  0  0  0  0  0
    6.0677    0.9551    0.0000 H   0  0  0  0  0  0  0  0  0  0  0  0
    6.8792    1.1276    0.0000 H   0  0  0  0  0  0  0  0  0  0  0  0
    5.5038    3.5099    0.0000 H   0  0  0  0  0  0  0  0  0  0  0  0
    4.9486    2.8933    0.0000 H   0  0  0  0  0  0  0  0  0  0  0  0
    7.4616    1.7744    0.0000 H   0  0  0  0  0  0  0  0  0  0  0  0
    7.5484    2.5996    0.0000 H   0  0  0  0  0  0  0  0  0  0  0  0
    7.1132    3.3534    0.0000 H   0  0  0  0  0  0  0  0  0  0  0  0
    6.3552    3.6909    0.0000 H   0  0  0  0  0  0  0  0  0  0  0  0
    4.0611    1.7088    0.0000 H   0  0  0  0  0  0  0  0  0  0  0  0
    3.1951    0.2088    0.0000 H   0  0  0  0  0  0  0  0  0  0  0  0
    2.3291   -1.2912    0.0000 H   0  0  0  0  0  0  0  0  0  0  0  0
    5.1350   -1.2912    0.0000 H   0  0  0  0  0  0  0  0  0  0  0  0
    3.7320   -3.7212    0.0000 H   0  0  0  0  0  0  0  0  0  0  0  0
  1 15  1  0  0  0  0
  2 16  1  0  0  0  0
  3 11  2  0  0  0  0
  4  6  1  0  0  0  0
  4 11  1  0  0  0  0
  4 27  1  0  0  0  0
  5 11  1  0  0  0  0
  5 12  1  0  0  0  0
  5 28  1  0  0  0  0
  6  7  1  0  0  0  0
  6  8  1  0  0  0  0
  6 18  1  0  0  0  0
  7  9  1  0  0  0  0
  7 19  1  0  0  0  0
  7 20  1  0  0  0  0
  8 10  1  0  0  0  0
  8 21  1  0  0  0  0
  8 22  1  0  0  0  0
  9 10  1  0  0  0  0
  9 23  1  0  0  0  0
  9 24  1  0  0  0  0
 10 25  1  0  0  0  0
 10 26  1  0  0  0  0
 12 13  2  0  0  0  0
 12 14  1  0  0  0  0
 13 16  1  0  0  0  0
 13 29  1  0  0  0  0
 14 15  2  0  0  0  0
 14 30  1  0  0  0  0
 15 17  1  0  0  0  0
 16 17  2  0  0  0  0
 17 31  1  0  0  0  0
M  END
> <PUBCHEM_COMPOUND_CID>
38159532

> <PUBCHEM_COMPOUND_CANONICALIZED>
1

> <PUBCHEM_CACTVS_COMPLEXITY>
259

> <PUBCHEM_CACTVS_HBOND_ACCEPTOR>
1

> <PUBCHEM_CACTVS_HBOND_DONOR>
2

> <PUBCHEM_CACTVS_ROTATABLE_BOND>
2

> <PUBCHEM_CACTVS_SUBSKEYS>
AAADccBzIAAGAAAAAAAAAAAAAAAAAYAAAAAwAAAAAAAAAAABAAAAHgIQAAAACCrBECQxwILAAACIACRCUACCAAAhBwAAiIAIZoiIICLBk5GEIAholgJIyCcQAAAAAAAAAAKAAAAAAAAABQAAAAAAAAAAAA==

> <PUBCHEM_IUPAC_OPENEYE_NAME>
1-cyclopentyl-3-(3,5-dichlorophenyl)urea

> <PUBCHEM_IUPAC_CAS_NAME>
1-cyclopentyl-3-(3,5-dichlorophenyl)urea

> <PUBCHEM_IUPAC_NAME>
1-cyclopentyl-3-(3,5-dichlorophenyl)urea

> <PUBCHEM_IUPAC_SYSTEMATIC_NAME>
1-[3,5-bis(chloranyl)phenyl]-3-cyclopentyl-urea

> <PUBCHEM_IUPAC_TRADITIONAL_NAME>
1-cyclopentyl-3-(3,5-dichlorophenyl)urea

> <PUBCHEM_IUPAC_INCHI>
InChI=1S/C12H14Cl2N2O/c13-8-5-9(14)7-11(6-8)16-12(17)15-10-3-1-2-4-10/h5-7,10H,1-4H2,(H2,15,16,17)

> <PUBCHEM_IUPAC_INCHIKEY>
IZGYCLVCMGHQJX-UHFFFAOYSA-N

> <PUBCHEM_XLOGP3>
3.9

> <PUBCHEM_EXACT_MASS>
272.048318

> <PUBCHEM_MOLECULAR_FORMULA>
C12H14Cl2N2O

> <PUBCHEM_MOLECULAR_WEIGHT>
273.15836

> <PUBCHEM_OPENEYE_CAN_SMILES>
C1CCC(C1)NC(=O)NC2=CC(=CC(=C2)Cl)Cl

> <PUBCHEM_OPENEYE_ISO_SMILES>
C1CCC(C1)NC(=O)NC2=CC(=CC(=C2)Cl)Cl

> <PUBCHEM_CACTVS_TPSA>
41.1

> <PUBCHEM_MONOISOTOPIC_WEIGHT>
272.048318

> <PUBCHEM_TOTAL_CHARGE>
0

> <PUBCHEM_HEAVY_ATOM_COUNT>
17

> <PUBCHEM_ATOM_DEF_STEREO_COUNT>
0

> <PUBCHEM_ATOM_UDEF_STEREO_COUNT>
0

> <PUBCHEM_BOND_DEF_STEREO_COUNT>
0

> <PUBCHEM_BOND_UDEF_STEREO_COUNT>
0

> <PUBCHEM_ISOTOPIC_ATOM_COUNT>
0

> <PUBCHEM_COMPONENT_COUNT>
1

> <PUBCHEM_CACTVS_TAUTO_COUNT>
3

> <PUBCHEM_COORDINATE_TYPE>
1
5
255

> <PUBCHEM_BONDANNOTATIONS>
12  13  8
12  14  8
13  16  8
14  15  8
15  17  8
16  17  8

$$$$
38174713
  -OEChem-05231305202D

 42 45  0     0  0  0  0  0  0999 V2000
    6.5969    0.8983    0.0000 O   0  0  0  0  0  0  0  0  0  0  0  0
    7.4629   -0.6017    0.0000 N   0  0  0  0  0  0  0  0  0  0  0  0
    3.7899    1.0963    0.0000 N   0  0  0  0  0  0  0  0  0  0  0  0
    4.8648   -0.1017    0.0000 C   0  0  0  0  0  0  0  0  0  0  0  0
    3.9570   -0.5068    0.0000 C   0  0  0  0  0  0  0  0  0  0  0  0
    5.7308   -0.6017    0.0000 C   0  0  0  0  0  0  0  0  0  0  0  0
    3.2892    0.2375    0.0000 C   0  0  0  0  0  0  0  0  0  0  0  0
    4.7617    0.8871    0.0000 C   0  0  0  0  0  0  0  0  0  0  0  0
    6.5969   -0.1017    0.0000 C   0  0  0  0  0  0  0  0  0  0  0  0
    8.3289   -0.1017    0.0000 C   0  0  0  0  0  0  0  0  0  0  0  0
    3.6464   -1.4573    0.0000 C   0  0  0  0  0  0  0  0  0  0  0  0
   10.0610   -0.1017    0.0000 C   0  0  0  0  0  0  0  0  0  0  0  0
    9.1949   -0.6017    0.0000 C   0  0  0  0  0  0  0  0  0  0  0  0
   10.0610    0.8983    0.0000 C   0  0  0  0  0  0  0  0  0  0  0  0
    2.3107    0.0313    0.0000 C   0  0  0  0  0  0  0  0  0  0  0  0
    8.3289    0.8983    0.0000 C   0  0  0  0  0  0  0  0  0  0  0  0
    9.1949    1.3983    0.0000 C   0  0  0  0  0  0  0  0  0  0  0  0
    7.4629   -1.6017    0.0000 C   0  0  0  0  0  0  0  0  0  0  0  0
    2.6678   -1.6635    0.0000 C   0  0  0  0  0  0  0  0  0  0  0  0
    2.0000   -0.9192    0.0000 C   0  0  0  0  0  0  0  0  0  0  0  0
   10.9549   -0.6363    0.0000 C   0  0  0  0  0  0  0  0  0  0  0  0
   10.9549    1.4330    0.0000 C   0  0  0  0  0  0  0  0  0  0  0  0
   11.8610   -0.1225    0.0000 C   0  0  0  0  0  0  0  0  0  0  0  0
   11.8610    0.9191    0.0000 C   0  0  0  0  0  0  0  0  0  0  0  0
    5.3323   -1.0766    0.0000 H   0  0  0  0  0  0  0  0  0  0  0  0
    6.1293   -1.0766    0.0000 H   0  0  0  0  0  0  0  0  0  0  0  0
    5.2232    1.3011    0.0000 H   0  0  0  0  0  0  0  0  0  0  0  0
    3.5397    1.6635    0.0000 H   0  0  0  0  0  0  0  0  0  0  0  0
    4.0604   -1.9188    0.0000 H   0  0  0  0  0  0  0  0  0  0  0  0
    9.1949   -1.2217    0.0000 H   0  0  0  0  0  0  0  0  0  0  0  0
    1.8966    0.4928    0.0000 H   0  0  0  0  0  0  0  0  0  0  0  0
    7.7920    1.2083    0.0000 H   0  0  0  0  0  0  0  0  0  0  0  0
    9.1949    2.0183    0.0000 H   0  0  0  0  0  0  0  0  0  0  0  0
    6.8429   -1.6017    0.0000 H   0  0  0  0  0  0  0  0  0  0  0  0
    7.4629   -2.2217    0.0000 H   0  0  0  0  0  0  0  0  0  0  0  0
    8.0829   -1.6017    0.0000 H   0  0  0  0  0  0  0  0  0  0  0  0
    2.4752   -2.2529    0.0000 H   0  0  0  0  0  0  0  0  0  0  0  0
    1.3933   -1.0471    0.0000 H   0  0  0  0  0  0  0  0  0  0  0  0
   10.9477   -1.2563    0.0000 H   0  0  0  0  0  0  0  0  0  0  0  0
   10.9477    2.0530    0.0000 H   0  0  0  0  0  0  0  0  0  0  0  0
   12.3967   -0.4346    0.0000 H   0  0  0  0  0  0  0  0  0  0  0  0
   12.3967    1.2312    0.0000 H   0  0  0  0  0  0  0  0  0  0  0  0
  1  9  2  0  0  0  0
  2  9  1  0  0  0  0
  2 10  1  0  0  0  0
  2 18  1  0  0  0  0
  3  7  1  0  0  0  0
  3  8  1  0  0  0  0
  3 28  1  0  0  0  0
  4  5  1  0  0  0  0
  4  6  1  0  0  0  0
  4  8  2  0  0  0  0
  5  7  1  0  0  0  0
  5 11  2  0  0  0  0
  6  9  1  0  0  0  0
  6 25  1  0  0  0  0
  6 26  1  0  0  0  0
  7 15  2  0  0  0  0
  8 27  1  0  0  0  0
 10 13  2  0  0  0  0
 10 16  1  0  0  0  0
 11 19  1  0  0  0  0
 11 29  1  0  0  0  0
 12 13  1  0  0  0  0
 12 14  1  0  0  0  0
 12 21  2  0  0  0  0
 13 30  1  0  0  0  0
 14 17  1  0  0  0  0
 14 22  2  0  0  0  0
 15 20  1  0  0  0  0
 15 31  1  0  0  0  0
 16 17  2  0  0  0  0
 16 32  1  0  0  0  0
 17 33  1  0  0  0  0
 18 34  1  0  0  0  0
 18 35  1  0  0  0  0
 18 36  1  0  0  0  0
 19 20  2  0  0  0  0
 19 37  1  0  0  0  0
 20 38  1  0  0  0  0
 21 23  1  0  0  0  0
 21 39  1  0  0  0  0
 22 24  1  0  0  0  0
 22 40  1  0  0  0  0
 23 24  2  0  0  0  0
 23 41  1  0  0  0  0
 24 42  1  0  0  0  0
M  END
> <PUBCHEM_COMPOUND_CID>
38174713

> <PUBCHEM_COMPOUND_CANONICALIZED>
1

> <PUBCHEM_CACTVS_COMPLEXITY>
451

> <PUBCHEM_CACTVS_HBOND_ACCEPTOR>
1

> <PUBCHEM_CACTVS_HBOND_DONOR>
1

> <PUBCHEM_CACTVS_ROTATABLE_BOND>
3

> <PUBCHEM_CACTVS_SUBSKEYS>
AAADceB7IAAAAAAAAAAAAAAAAAAAAWAAAAAwYMAAAAAAAFjB9AAAHgAQAAAADAjBngQ+wPPJkACoAzV3VACCgCAxAiAI2aE4ZJgIIPLAlZGEIAhglgDIyAccicCeiAAAQAASAAAQAACAACQAAAAAAAAAAA==

> <PUBCHEM_IUPAC_OPENEYE_NAME>
2-(1H-indol-3-yl)-N-methyl-N-(2-naphthyl)acetamide

> <PUBCHEM_IUPAC_CAS_NAME>
2-(1H-indol-3-yl)-N-methyl-N-(2-naphthalenyl)acetamide

> <PUBCHEM_IUPAC_NAME>
2-(1H-indol-3-yl)-N-methyl-N-naphthalen-2-ylacetamide

> <PUBCHEM_IUPAC_SYSTEMATIC_NAME>
2-(1H-indol-3-yl)-N-methyl-N-naphthalen-2-yl-ethanamide

> <PUBCHEM_IUPAC_TRADITIONAL_NAME>
2-(1H-indol-3-yl)-N-methyl-N-(2-naphthyl)acetamide

> <PUBCHEM_IUPAC_INCHI>
InChI=1S/C21H18N2O/c1-23(18-11-10-15-6-2-3-7-16(15)12-18)21(24)13-17-14-22-20-9-5-4-8-19(17)20/h2-12,14,22H,13H2,1H3

> <PUBCHEM_IUPAC_INCHIKEY>
OUYRZCXSZIZPOI-UHFFFAOYSA-N

> <PUBCHEM_XLOGP3>
4.2

> <PUBCHEM_EXACT_MASS>
314.141913

> <PUBCHEM_MOLECULAR_FORMULA>
C21H18N2O

> <PUBCHEM_MOLECULAR_WEIGHT>
314.38042

> <PUBCHEM_OPENEYE_CAN_SMILES>
CN(C1=CC2=CC=CC=C2C=C1)C(=O)CC3=CNC4=CC=CC=C43

> <PUBCHEM_OPENEYE_ISO_SMILES>
CN(C1=CC2=CC=CC=C2C=C1)C(=O)CC3=CNC4=CC=CC=C43

> <PUBCHEM_CACTVS_TPSA>
36.1

> <PUBCHEM_MONOISOTOPIC_WEIGHT>
314.141913

> <PUBCHEM_TOTAL_CHARGE>
0

> <PUBCHEM_HEAVY_ATOM_COUNT>
24

> <PUBCHEM_ATOM_DEF_STEREO_COUNT>
0

> <PUBCHEM_ATOM_UDEF_STEREO_COUNT>
0

> <PUBCHEM_BOND_DEF_STEREO_COUNT>
0

> <PUBCHEM_BOND_UDEF_STEREO_COUNT>
0

> <PUBCHEM_ISOTOPIC_ATOM_COUNT>
0

> <PUBCHEM_COMPONENT_COUNT>
1

> <PUBCHEM_CACTVS_TAUTO_COUNT>
1

> <PUBCHEM_COORDINATE_TYPE>
1
5
255

> <PUBCHEM_BONDANNOTATIONS>
10  13  8
10  16  8
11  19  8
12  13  8
12  14  8
12  21  8
14  17  8
14  22  8
15  20  8
16  17  8
19  20  8
21  23  8
22  24  8
23  24  8
3  7  8
3  8  8
4  5  8
4  8  8
5  11  8
5  7  8
7  15  8

$$$$
