36337797
  -OEChem-05231305202D

 42 44  0     0  0  0  0  0  0999 V2000
   11.4813    2.8748    0.0000 Br  0  0  0  0  0  0  0  0  0  0  0  0
    5.6103    1.6375    0.0000 O   0  0  0  0  0  0  0  0  0  0  0  0
    7.2566    1.0994    0.0000 N   0  0  0  0  0  0  0  0  0  0  0  0
    4.6783   -2.8236    0.0000 N   0  0  0  0  0  0  0  0  0  0  0  0
    4.9889   -0.2636    0.0000 C   0  0  0  0  0  0  0  0  0  0  0  0
    4.6783   -1.2141    0.0000 C   0  0  0  0  0  0  0  0  0  0  0  0
    5.9674   -0.0573    0.0000 C   0  0  0  0  0  0  0  0  0  0  0  0
    3.7320   -1.5188    0.0000 C   0  0  0  0  0  0  0  0  0  0  0  0
    3.7320   -2.5188    0.0000 C   0  0  0  0  0  0  0  0  0  0  0  0
    5.2619   -2.0188    0.0000 C   0  0  0  0  0  0  0  0  0  0  0  0
    6.2781    0.8932    0.0000 C   0  0  0  0  0  0  0  0  0  0  0  0
    7.5673    2.0499    0.0000 C   0  0  0  0  0  0  0  0  0  0  0  0
    2.8660   -1.0188    0.0000 C   0  0  0  0  0  0  0  0  0  0  0  0
    2.8660   -3.0188    0.0000 C   0  0  0  0  0  0  0  0  0  0  0  0
    8.5458    2.2561    0.0000 C   0  0  0  0  0  0  0  0  0  0  0  0
    7.9244    0.3551    0.0000 C   0  0  0  0  0  0  0  0  0  0  0  0
    2.0000   -1.5188    0.0000 C   0  0  0  0  0  0  0  0  0  0  0  0
    2.0000   -2.5188    0.0000 C   0  0  0  0  0  0  0  0  0  0  0  0
    9.2136    1.5118    0.0000 C   0  0  0  0  0  0  0  0  0  0  0  0
    8.8564    3.2066    0.0000 C   0  0  0  0  0  0  0  0  0  0  0  0
   10.1921    1.7180    0.0000 C   0  0  0  0  0  0  0  0  0  0  0  0
    9.8349    3.4129    0.0000 C   0  0  0  0  0  0  0  0  0  0  0  0
   10.5028    2.6686    0.0000 C   0  0  0  0  0  0  0  0  0  0  0  0
    4.9684    0.3561    0.0000 H   0  0  0  0  0  0  0  0  0  0  0  0
    4.3751   -0.1762    0.0000 H   0  0  0  0  0  0  0  0  0  0  0  0
    5.9880   -0.6770    0.0000 H   0  0  0  0  0  0  0  0  0  0  0  0
    6.5812   -0.1447    0.0000 H   0  0  0  0  0  0  0  0  0  0  0  0
    5.8819   -2.0188    0.0000 H   0  0  0  0  0  0  0  0  0  0  0  0
    4.8709   -3.4129    0.0000 H   0  0  0  0  0  0  0  0  0  0  0  0
    7.5467    2.6696    0.0000 H   0  0  0  0  0  0  0  0  0  0  0  0
    6.9534    2.1373    0.0000 H   0  0  0  0  0  0  0  0  0  0  0  0
    2.8660   -0.3988    0.0000 H   0  0  0  0  0  0  0  0  0  0  0  0
    2.8660   -3.6388    0.0000 H   0  0  0  0  0  0  0  0  0  0  0  0
    7.4630   -0.0590    0.0000 H   0  0  0  0  0  0  0  0  0  0  0  0
    8.3385   -0.1064    0.0000 H   0  0  0  0  0  0  0  0  0  0  0  0
    8.3859    0.7692    0.0000 H   0  0  0  0  0  0  0  0  0  0  0  0
    1.4631   -1.2088    0.0000 H   0  0  0  0  0  0  0  0  0  0  0  0
    1.4631   -2.8288    0.0000 H   0  0  0  0  0  0  0  0  0  0  0  0
    9.0210    0.9225    0.0000 H   0  0  0  0  0  0  0  0  0  0  0  0
    8.4424    3.6681    0.0000 H   0  0  0  0  0  0  0  0  0  0  0  0
   10.6062    1.2566    0.0000 H   0  0  0  0  0  0  0  0  0  0  0  0
   10.0276    4.0022    0.0000 H   0  0  0  0  0  0  0  0  0  0  0  0
  1 23  1  0  0  0  0
  2 11  2  0  0  0  0
  3 11  1  0  0  0  0
  3 12  1  0  0  0  0
  3 16  1  0  0  0  0
  4  9  1  0  0  0  0
  4 10  1  0  0  0  0
  4 29  1  0  0  0  0
  5  6  1  0  0  0  0
  5  7  1  0  0  0  0
  5 24  1  0  0  0  0
  5 25  1  0  0  0  0
  6  8  1  0  0  0  0
  6 10  2  0  0  0  0
  7 11  1  0  0  0  0
  7 26  1  0  0  0  0
  7 27  1  0  0  0  0
  8  9  1  0  0  0  0
  8 13  2  0  0  0  0
  9 14  2  0  0  0  0
 10 28  1  0  0  0  0
 12 15  1  0  0  0  0
 12 30  1  0  0  0  0
 12 31  1  0  0  0  0
 13 17  1  0  0  0  0
 13 32  1  0  0  0  0
 14 18  1  0  0  0  0
 14 33  1  0  0  0  0
 15 19  2  0  0  0  0
 15 20  1  0  0  0  0
 16 34  1  0  0  0  0
 16 35  1  0  0  0  0
 16 36  1  0  0  0  0
 17 18  2  0  0  0  0
 17 37  1  0  0  0  0
 18 38  1  0  0  0  0
 19 21  1  0  0  0  0
 19 39  1  0  0  0  0
 20 22  2  0  0  0  0
 20 40  1  0  0  0  0
 21 23  2  0  0  0  0
 21 41  1  0  0  0  0
 22 23  1  0  0  0  0
 22 42  1  0  0  0  0
M  END
> <PUBCHEM_COMPOUND_CID>
36337797

> <PUBCHEM_COMPOUND_CANONICALIZED>
1

> <PUBCHEM_CACTVS_COMPLEXITY>
395

> <PUBCHEM_CACTVS_HBOND_ACCEPTOR>
1

> <PUBCHEM_CACTVS_HBOND_DONOR>
1

> <PUBCHEM_CACTVS_ROTATABLE_BOND>
5

> <PUBCHEM_CACTVS_SUBSKEYS>
AAADceB7IAAAEAAAAAAAAAAAAAAAAWAAAAAwYAAAAAAAAFgB9AAAHgBQAAABrAjBngQ+wPPJkACoAzV3VACCgCAxAiQI2aE4ZLgIIPLAkZGEIAhglgDIyhcYicCOggAAAAACAAAEAAAAAAQAAAAAAAAAAA==

> <PUBCHEM_IUPAC_OPENEYE_NAME>
N-[(4-bromophenyl)methyl]-3-(1H-indol-3-yl)-N-methyl-propanamide

> <PUBCHEM_IUPAC_CAS_NAME>
N-[(4-bromophenyl)methyl]-3-(1H-indol-3-yl)-N-methylpropanamide

> <PUBCHEM_IUPAC_NAME>
N-[(4-bromophenyl)methyl]-3-(1H-indol-3-yl)-N-methylpropanamide

> <PUBCHEM_IUPAC_SYSTEMATIC_NAME>
N-[(4-bromophenyl)methyl]-3-(1H-indol-3-yl)-N-methyl-propanamide

> <PUBCHEM_IUPAC_TRADITIONAL_NAME>
N-(4-bromobenzyl)-3-(1H-indol-3-yl)-N-methyl-propionamide

> <PUBCHEM_IUPAC_INCHI>
InChI=1S/C19H19BrN2O/c1-22(13-14-6-9-16(20)10-7-14)19(23)11-8-15-12-21-18-5-3-2-4-17(15)18/h2-7,9-10,12,21H,8,11,13H2,1H3

> <PUBCHEM_IUPAC_INCHIKEY>
DBLUOYBYPXCKPL-UHFFFAOYSA-N

> <PUBCHEM_XLOGP3>
3.9

> <PUBCHEM_EXACT_MASS>
370.068075

> <PUBCHEM_MOLECULAR_FORMULA>
C19H19BrN2O

> <PUBCHEM_MOLECULAR_WEIGHT>
371.27096

> <PUBCHEM_OPENEYE_CAN_SMILES>
CN(CC1=CC=C(C=C1)Br)C(=O)CCC2=CNC3=CC=CC=C32

> <PUBCHEM_OPENEYE_ISO_SMILES>
CN(CC1=CC=C(C=C1)Br)C(=O)CCC2=CNC3=CC=CC=C32

> <PUBCHEM_CACTVS_TPSA>
36.1

> <PUBCHEM_MONOISOTOPIC_WEIGHT>
370.068075

> <PUBCHEM_TOTAL_CHARGE>
0

> <PUBCHEM_HEAVY_ATOM_COUNT>
23

> <PUBCHEM_ATOM_DEF_STEREO_COUNT>
0

> <PUBCHEM_ATOM_UDEF_STEREO_COUNT>
0

> <PUBCHEM_BOND_DEF_STEREO_COUNT>
0

> <PUBCHEM_BOND_UDEF_STEREO_COUNT>
0

> <PUBCHEM_ISOTOPIC_ATOM_COUNT>
0

> <PUBCHEM_COMPONENT_COUNT>
1

> <PUBCHEM_CACTVS_TAUTO_COUNT>
1

> <PUBCHEM_COORDINATE_TYPE>
1
5
255

> <PUBCHEM_BONDANNOTATIONS>
13  17  8
14  18  8
15  19  8
15  20  8
17  18  8
19  21  8
20  22  8
21  23  8
22  23  8
4  10  8
4  9  8
6  10  8
6  8  8
8  13  8
8  9  8
9  14  8

$$$$
36340008
  -OEChem-05231305202D

 45 47  0     0  0  0  0  0  0999 V2000
    9.7884    4.7355    0.0000 Br  0  0  0  0  0  0  0  0  0  0  0  0
    7.9244   -0.9676    0.0000 O   0  0  0  0  0  0  0  0  0  0  0  0
    4.6783   -4.1462    0.0000 N   0  0  0  0  0  0  0  0  0  0  0  0
    7.5673    0.7272    0.0000 N   0  0  0  0  0  0  0  0  0  0  0  0
    4.9889   -1.5862    0.0000 C   0  0  0  0  0  0  0  0  0  0  0  0
    5.9674   -1.3800    0.0000 C   0  0  0  0  0  0  0  0  0  0  0  0
    4.6783   -2.5368    0.0000 C   0  0  0  0  0  0  0  0  0  0  0  0
    6.2781   -0.4295    0.0000 C   0  0  0  0  0  0  0  0  0  0  0  0
    3.7320   -2.8415    0.0000 C   0  0  0  0  0  0  0  0  0  0  0  0
    3.7320   -3.8415    0.0000 C   0  0  0  0  0  0  0  0  0  0  0  0
    5.2619   -3.3415    0.0000 C   0  0  0  0  0  0  0  0  0  0  0  0
    7.2566   -0.2233    0.0000 C   0  0  0  0  0  0  0  0  0  0  0  0
    8.5458    0.9335    0.0000 C   0  0  0  0  0  0  0  0  0  0  0  0
    2.8660   -2.3415    0.0000 C   0  0  0  0  0  0  0  0  0  0  0  0
    2.8660   -4.3415    0.0000 C   0  0  0  0  0  0  0  0  0  0  0  0
    8.8564    1.8840    0.0000 C   0  0  0  0  0  0  0  0  0  0  0  0
    6.8994    1.4715    0.0000 C   0  0  0  0  0  0  0  0  0  0  0  0
    2.0000   -2.8415    0.0000 C   0  0  0  0  0  0  0  0  0  0  0  0
    2.0000   -3.8415    0.0000 C   0  0  0  0  0  0  0  0  0  0  0  0
    8.1886    2.6283    0.0000 C   0  0  0  0  0  0  0  0  0  0  0  0
    9.8349    2.0902    0.0000 C   0  0  0  0  0  0  0  0  0  0  0  0
    8.4993    3.5788    0.0000 C   0  0  0  0  0  0  0  0  0  0  0  0
   10.1456    3.0407    0.0000 C   0  0  0  0  0  0  0  0  0  0  0  0
    9.4778    3.7850    0.0000 C   0  0  0  0  0  0  0  0  0  0  0  0
    4.9684   -0.9666    0.0000 H   0  0  0  0  0  0  0  0  0  0  0  0
    4.3751   -1.4989    0.0000 H   0  0  0  0  0  0  0  0  0  0  0  0
    5.9880   -1.9997    0.0000 H   0  0  0  0  0  0  0  0  0  0  0  0
    6.5812   -1.4674    0.0000 H   0  0  0  0  0  0  0  0  0  0  0  0
    6.2575    0.1902    0.0000 H   0  0  0  0  0  0  0  0  0  0  0  0
    5.6643   -0.3421    0.0000 H   0  0  0  0  0  0  0  0  0  0  0  0
    5.8819   -3.3415    0.0000 H   0  0  0  0  0  0  0  0  0  0  0  0
    4.8709   -4.7355    0.0000 H   0  0  0  0  0  0  0  0  0  0  0  0
    8.5663    0.3138    0.0000 H   0  0  0  0  0  0  0  0  0  0  0  0
    9.1596    0.8461    0.0000 H   0  0  0  0  0  0  0  0  0  0  0  0
    2.8660   -1.7215    0.0000 H   0  0  0  0  0  0  0  0  0  0  0  0
    2.8660   -4.9615    0.0000 H   0  0  0  0  0  0  0  0  0  0  0  0
    7.3609    1.8856    0.0000 H   0  0  0  0  0  0  0  0  0  0  0  0
    6.4854    1.9330    0.0000 H   0  0  0  0  0  0  0  0  0  0  0  0
    6.4380    1.0575    0.0000 H   0  0  0  0  0  0  0  0  0  0  0  0
    1.4631   -2.5315    0.0000 H   0  0  0  0  0  0  0  0  0  0  0  0
    1.4631   -4.1515    0.0000 H   0  0  0  0  0  0  0  0  0  0  0  0
    7.5819    2.5004    0.0000 H   0  0  0  0  0  0  0  0  0  0  0  0
   10.2490    1.6287    0.0000 H   0  0  0  0  0  0  0  0  0  0  0  0
    8.0852    4.0403    0.0000 H   0  0  0  0  0  0  0  0  0  0  0  0
   10.7523    3.1686    0.0000 H   0  0  0  0  0  0  0  0  0  0  0  0
  1 24  1  0  0  0  0
  2 12  2  0  0  0  0
  3 10  1  0  0  0  0
  3 11  1  0  0  0  0
  3 32  1  0  0  0  0
  4 12  1  0  0  0  0
  4 13  1  0  0  0  0
  4 17  1  0  0  0  0
  5  6  1  0  0  0  0
  5  7  1  0  0  0  0
  5 25  1  0  0  0  0
  5 26  1  0  0  0  0
  6  8  1  0  0  0  0
  6 27  1  0  0  0  0
  6 28  1  0  0  0  0
  7  9  1  0  0  0  0
  7 11  2  0  0  0  0
  8 12  1  0  0  0  0
  8 29  1  0  0  0  0
  8 30  1  0  0  0  0
  9 10  1  0  0  0  0
  9 14  2  0  0  0  0
 10 15  2  0  0  0  0
 11 31  1  0  0  0  0
 13 16  1  0  0  0  0
 13 33  1  0  0  0  0
 13 34  1  0  0  0  0
 14 18  1  0  0  0  0
 14 35  1  0  0  0  0
 15 19  1  0  0  0  0
 15 36  1  0  0  0  0
 16 20  2  0  0  0  0
 16 21  1  0  0  0  0
 17 37  1  0  0  0  0
 17 38  1  0  0  0  0
 17 39  1  0  0  0  0
 18 19  2  0  0  0  0
 18 40  1  0  0  0  0
 19 41  1  0  0  0  0
 20 22  1  0  0  0  0
 20 42  1  0  0  0  0
 21 23  2  0  0  0  0
 21 43  1  0  0  0  0
 22 24  2  0  0  0  0
 22 44  1  0  0  0  0
 23 24  1  0  0  0  0
 23 45  1  0  0  0  0
M  END
> <PUBCHEM_COMPOUND_CID>
36340008

> <PUBCHEM_COMPOUND_CANONICALIZED>
1

> <PUBCHEM_CACTVS_COMPLEXITY>
408

> <PUBCHEM_CACTVS_HBOND_ACCEPTOR>
1

> <PUBCHEM_CACTVS_HBOND_DONOR>
1

> <PUBCHEM_CACTVS_ROTATABLE_BOND>
6

> <PUBCHEM_CACTVS_SUBSKEYS>
AAADceB7IAAAEAAAAAAAAAAAAAAAAWAAAAAwYAAAAAAAAFgB9AAAHgBQAAABrAjBngQ+wPPJkACoAzV3VACCgCAxAiQI2aE4ZLgIIPLAkZGEIAhglgDIyhcYiMCOggAAAAACAAAEAAAAAAQAAAAAAAAAAA==

> <PUBCHEM_IUPAC_OPENEYE_NAME>
N-[(4-bromophenyl)methyl]-4-(1H-indol-3-yl)-N-methyl-butanamide

> <PUBCHEM_IUPAC_CAS_NAME>
N-[(4-bromophenyl)methyl]-4-(1H-indol-3-yl)-N-methylbutanamide

> <PUBCHEM_IUPAC_NAME>
N-[(4-bromophenyl)methyl]-4-(1H-indol-3-yl)-N-methylbutanamide

> <PUBCHEM_IUPAC_SYSTEMATIC_NAME>
N-[(4-bromophenyl)methyl]-4-(1H-indol-3-yl)-N-methyl-butanamide

> <PUBCHEM_IUPAC_TRADITIONAL_NAME>
N-(4-bromobenzyl)-4-(1H-indol-3-yl)-N-methyl-butyramide

> <PUBCHEM_IUPAC_INCHI>
InChI=1S/C20H21BrN2O/c1-23(14-15-9-11-17(21)12-10-15)20(24)8-4-5-16-13-22-19-7-3-2-6-18(16)19/h2-3,6-7,9-13,22H,4-5,8,14H2,1H3

> <PUBCHEM_IUPAC_INCHIKEY>
RNCCFWTXBICEMA-UHFFFAOYSA-N

> <PUBCHEM_XLOGP3>
4.4

> <PUBCHEM_EXACT_MASS>
384.083725

> <PUBCHEM_MOLECULAR_FORMULA>
C20H21BrN2O

> <PUBCHEM_MOLECULAR_WEIGHT>
385.29754

> <PUBCHEM_OPENEYE_CAN_SMILES>
CN(CC1=CC=C(C=C1)Br)C(=O)CCCC2=CNC3=CC=CC=C32

> <PUBCHEM_OPENEYE_ISO_SMILES>
CN(CC1=CC=C(C=C1)Br)C(=O)CCCC2=CNC3=CC=CC=C32

> <PUBCHEM_CACTVS_TPSA>
36.1

> <PUBCHEM_MONOISOTOPIC_WEIGHT>
384.083725

> <PUBCHEM_TOTAL_CHARGE>
0

> <PUBCHEM_HEAVY_ATOM_COUNT>
24

> <PUBCHEM_ATOM_DEF_STEREO_COUNT>
0

> <PUBCHEM_ATOM_UDEF_STEREO_COUNT>
0

> <PUBCHEM_BOND_DEF_STEREO_COUNT>
0

> <PUBCHEM_BOND_UDEF_STEREO_COUNT>
0

> <PUBCHEM_ISOTOPIC_ATOM_COUNT>
0

> <PUBCHEM_COMPONENT_COUNT>
1

> <PUBCHEM_CACTVS_TAUTO_COUNT>
1

> <PUBCHEM_COORDINATE_TYPE>
1
5
255

> <PUBCHEM_BONDANNOTATIONS>
10  15  8
14  18  8
15  19  8
16  20  8
16  21  8
18  19  8
20  22  8
21  23  8
22  24  8
23  24  8
3  10  8
3  11  8
7  11  8
7  9  8
9  10  8
9  14  8

$$$$
