16326870
  -OEChem-11301217182D

 49 52  0     1  0  0  0  0  0999 V2000
   11.2171   -1.1072    0.0000 Cl  0  0  0  0  0  0  0  0  0  0  0  0
    7.9244   -0.0311    0.0000 O   0  0  0  0  0  0  0  0  0  0  0  0
    7.5673    1.6638    0.0000 N   0  0  0  0  0  0  0  0  0  0  0  0
    4.6783   -3.2097    0.0000 N   0  0  0  0  0  0  0  0  0  0  0  0
    8.8564    2.8205    0.0000 C   0  0  0  0  0  0  0  0  0  0  0  0
    9.6007    3.4884    0.0000 C   0  0  0  0  0  0  0  0  0  0  0  0
    8.6502    3.7990    0.0000 C   0  0  0  0  0  0  0  0  0  0  0  0
    8.5458    1.8700    0.0000 C   0  0  3  0  0  0  0  0  0  0  0  0
    9.2136    1.1257    0.0000 C   0  0  0  0  0  0  0  0  0  0  0  0
    7.2566    0.7133    0.0000 C   0  0  0  0  0  0  0  0  0  0  0  0
    8.9030    0.1752    0.0000 C   0  0  0  0  0  0  0  0  0  0  0  0
   10.1921    1.3319    0.0000 C   0  0  0  0  0  0  0  0  0  0  0  0
    6.2781    0.5070    0.0000 C   0  0  0  0  0  0  0  0  0  0  0  0
    5.9674   -0.4435    0.0000 C   0  0  0  0  0  0  0  0  0  0  0  0
    9.5708   -0.5691    0.0000 C   0  0  0  0  0  0  0  0  0  0  0  0
   10.8600    0.5876    0.0000 C   0  0  0  0  0  0  0  0  0  0  0  0
    4.9889   -0.6497    0.0000 C   0  0  0  0  0  0  0  0  0  0  0  0
   10.5493   -0.3629    0.0000 C   0  0  0  0  0  0  0  0  0  0  0  0
    4.6783   -1.6002    0.0000 C   0  0  0  0  0  0  0  0  0  0  0  0
    3.7320   -1.9050    0.0000 C   0  0  0  0  0  0  0  0  0  0  0  0
    3.7320   -2.9050    0.0000 C   0  0  0  0  0  0  0  0  0  0  0  0
    5.2619   -2.4050    0.0000 C   0  0  0  0  0  0  0  0  0  0  0  0
    2.8660   -1.4050    0.0000 C   0  0  0  0  0  0  0  0  0  0  0  0
    2.8660   -3.4050    0.0000 C   0  0  0  0  0  0  0  0  0  0  0  0
    2.0000   -1.9050    0.0000 C   0  0  0  0  0  0  0  0  0  0  0  0
    2.0000   -2.9050    0.0000 C   0  0  0  0  0  0  0  0  0  0  0  0
    8.2373    2.8540    0.0000 H   0  0  0  0  0  0  0  0  0  0  0  0
   10.0886    3.1058    0.0000 H   0  0  0  0  0  0  0  0  0  0  0  0
    9.8928    4.0353    0.0000 H   0  0  0  0  0  0  0  0  0  0  0  0
    8.7376    4.4128    0.0000 H   0  0  0  0  0  0  0  0  0  0  0  0
    8.0306    3.7784    0.0000 H   0  0  0  0  0  0  0  0  0  0  0  0
    8.3532    1.2807    0.0000 H   0  0  0  0  0  0  0  0  0  0  0  0
    7.1532    2.1252    0.0000 H   0  0  0  0  0  0  0  0  0  0  0  0
    8.2963    0.0473    0.0000 H   0  0  0  0  0  0  0  0  0  0  0  0
   10.3847    1.9212    0.0000 H   0  0  0  0  0  0  0  0  0  0  0  0
    6.2575    1.1267    0.0000 H   0  0  0  0  0  0  0  0  0  0  0  0
    5.6643    0.5944    0.0000 H   0  0  0  0  0  0  0  0  0  0  0  0
    5.9880   -1.0632    0.0000 H   0  0  0  0  0  0  0  0  0  0  0  0
    6.5812   -0.5308    0.0000 H   0  0  0  0  0  0  0  0  0  0  0  0
    9.3782   -1.1585    0.0000 H   0  0  0  0  0  0  0  0  0  0  0  0
   11.4666    0.7155    0.0000 H   0  0  0  0  0  0  0  0  0  0  0  0
    4.9684   -0.0300    0.0000 H   0  0  0  0  0  0  0  0  0  0  0  0
    4.3751   -0.5624    0.0000 H   0  0  0  0  0  0  0  0  0  0  0  0
    5.8819   -2.4050    0.0000 H   0  0  0  0  0  0  0  0  0  0  0  0
    4.8709   -3.7990    0.0000 H   0  0  0  0  0  0  0  0  0  0  0  0
    2.8660   -0.7850    0.0000 H   0  0  0  0  0  0  0  0  0  0  0  0
    2.8660   -4.0250    0.0000 H   0  0  0  0  0  0  0  0  0  0  0  0
    1.4631   -1.5950    0.0000 H   0  0  0  0  0  0  0  0  0  0  0  0
    1.4631   -3.2150    0.0000 H   0  0  0  0  0  0  0  0  0  0  0  0
  1 18  1  0  0  0  0
  2 10  2  0  0  0  0
  3  8  1  0  0  0  0
  3 10  1  0  0  0  0
  3 33  1  0  0  0  0
  4 21  1  0  0  0  0
  4 22  1  0  0  0  0
  4 45  1  0  0  0  0
  5  6  1  0  0  0  0
  5  7  1  0  0  0  0
  5  8  1  0  0  0  0
  5 27  1  0  0  0  0
  6  7  1  0  0  0  0
  6 28  1  0  0  0  0
  6 29  1  0  0  0  0
  7 30  1  0  0  0  0
  7 31  1  0  0  0  0
  8  9  1  0  0  0  0
  8 32  1  0  0  0  0
  9 11  2  0  0  0  0
  9 12  1  0  0  0  0
 10 13  1  0  0  0  0
 11 15  1  0  0  0  0
 11 34  1  0  0  0  0
 12 16  2  0  0  0  0
 12 35  1  0  0  0  0
 13 14  1  0  0  0  0
 13 36  1  0  0  0  0
 13 37  1  0  0  0  0
 14 17  1  0  0  0  0
 14 38  1  0  0  0  0
 14 39  1  0  0  0  0
 15 18  2  0  0  0  0
 15 40  1  0  0  0  0
 16 18  1  0  0  0  0
 16 41  1  0  0  0  0
 17 19  1  0  0  0  0
 17 42  1  0  0  0  0
 17 43  1  0  0  0  0
 19 20  1  0  0  0  0
 19 22  2  0  0  0  0
 20 21  1  0  0  0  0
 20 23  2  0  0  0  0
 21 24  2  0  0  0  0
 22 44  1  0  0  0  0
 23 25  1  0  0  0  0
 23 46  1  0  0  0  0
 24 26  1  0  0  0  0
 24 47  1  0  0  0  0
 25 26  2  0  0  0  0
 25 48  1  0  0  0  0
 26 49  1  0  0  0  0
M  END
> <PUBCHEM_COMPOUND_CID>
16326870

> <PUBCHEM_COMPOUND_CANONICALIZED>
1

> <PUBCHEM_CACTVS_COMPLEXITY>
473

> <PUBCHEM_CACTVS_HBOND_ACCEPTOR>
1

> <PUBCHEM_CACTVS_HBOND_DONOR>
2

> <PUBCHEM_CACTVS_ROTATABLE_BOND>
7

> <PUBCHEM_CACTVS_SUBSKEYS>
AAADceB7IAAEAAAAAAAAAAAAGAAAAWAAAAAwYAAAAAAAAFgB9AAAHgIQAAAADSrBniQ8wPLJkACoAzV3VACCgCAxByAI2aE4ZpgIIPLBk5GEIAhglgDIyAcYiMCOhAAAAAACAAAIAAAAAAQAAAAAAAAAAA==

> <PUBCHEM_IUPAC_OPENEYE_NAME>
N-[(4-chlorophenyl)-cyclopropyl-methyl]-4-(1H-indol-3-yl)butanamide

> <PUBCHEM_IUPAC_CAS_NAME>
N-[(4-chlorophenyl)-cyclopropylmethyl]-4-(1H-indol-3-yl)butanamide

> <PUBCHEM_IUPAC_NAME>
N-[(4-chlorophenyl)-cyclopropylmethyl]-4-(1H-indol-3-yl)butanamide

> <PUBCHEM_IUPAC_SYSTEMATIC_NAME>
N-[(4-chlorophenyl)-cyclopropyl-methyl]-4-(1H-indol-3-yl)butanamide

> <PUBCHEM_IUPAC_TRADITIONAL_NAME>
N-[(4-chlorophenyl)-cyclopropyl-methyl]-4-(1H-indol-3-yl)butyramide

> <PUBCHEM_IUPAC_INCHI>
InChI=1S/C22H23ClN2O/c23-18-12-10-16(11-13-18)22(15-8-9-15)25-21(26)7-3-4-17-14-24-20-6-2-1-5-19(17)20/h1-2,5-6,10-15,22,24H,3-4,7-9H2,(H,25,26)

> <PUBCHEM_IUPAC_INCHIKEY>
WSQYYJAMOXDLEJ-UHFFFAOYSA-N

> <PUBCHEM_XLOGP3>
5

> <PUBCHEM_EXACT_MASS>
366.149891

> <PUBCHEM_MOLECULAR_FORMULA>
C22H23ClN2O

> <PUBCHEM_MOLECULAR_WEIGHT>
366.88382

> <PUBCHEM_OPENEYE_CAN_SMILES>
C1CC1C(C2=CC=C(C=C2)Cl)NC(=O)CCCC3=CNC4=CC=CC=C43

> <PUBCHEM_OPENEYE_ISO_SMILES>
C1CC1C(C2=CC=C(C=C2)Cl)NC(=O)CCCC3=CNC4=CC=CC=C43

> <PUBCHEM_CACTVS_TPSA>
44.9

> <PUBCHEM_MONOISOTOPIC_WEIGHT>
366.149891

> <PUBCHEM_TOTAL_CHARGE>
0

> <PUBCHEM_HEAVY_ATOM_COUNT>
26

> <PUBCHEM_ATOM_DEF_STEREO_COUNT>
0

> <PUBCHEM_ATOM_UDEF_STEREO_COUNT>
1

> <PUBCHEM_BOND_DEF_STEREO_COUNT>
0

> <PUBCHEM_BOND_UDEF_STEREO_COUNT>
0

> <PUBCHEM_ISOTOPIC_ATOM_COUNT>
0

> <PUBCHEM_COMPONENT_COUNT>
1

> <PUBCHEM_CACTVS_TAUTO_COUNT>
2

> <PUBCHEM_COORDINATE_TYPE>
1
5
255

> <PUBCHEM_BONDANNOTATIONS>
11  15  8
12  16  8
15  18  8
16  18  8
19  20  8
19  22  8
20  21  8
20  23  8
21  24  8
23  25  8
24  26  8
25  26  8
8  3  3
4  21  8
4  22  8
9  11  8
9  12  8

$$$$
16337209
  -OEChem-11301217192D

 41 42  0     1  0  0  0  0  0999 V2000
    5.4641   -1.0000    0.0000 O   0  0  0  0  0  0  0  0  0  0  0  0
    3.7320   -1.0000    0.0000 N   0  0  0  0  0  0  0  0  0  0  0  0
    5.4641    1.0000    0.0000 C   0  0  3  0  0  0  0  0  0  0  0  0
    4.5981    0.5000    0.0000 C   0  0  0  0  0  0  0  0  0  0  0  0
    5.4641    2.0000    0.0000 C   0  0  0  0  0  0  0  0  0  0  0  0
    6.3301    0.5000    0.0000 C   0  0  0  0  0  0  0  0  0  0  0  0
    4.5981   -0.5000    0.0000 C   0  0  0  0  0  0  0  0  0  0  0  0
    3.7320   -2.0000    0.0000 C   0  0  0  0  0  0  0  0  0  0  0  0
    2.8660   -2.5000    0.0000 C   0  0  0  0  0  0  0  0  0  0  0  0
    6.3301    2.5000    0.0000 C   0  0  0  0  0  0  0  0  0  0  0  0
    4.5981    2.5000    0.0000 C   0  0  0  0  0  0  0  0  0  0  0  0
    2.8660   -3.5000    0.0000 C   0  0  0  0  0  0  0  0  0  0  0  0
    4.5981   -2.5000    0.0000 C   0  0  0  0  0  0  0  0  0  0  0  0
    6.3301    3.5000    0.0000 C   0  0  0  0  0  0  0  0  0  0  0  0
    4.5981    3.5000    0.0000 C   0  0  0  0  0  0  0  0  0  0  0  0
    3.7320   -4.0000    0.0000 C   0  0  0  0  0  0  0  0  0  0  0  0
    2.0000   -2.0000    0.0000 C   0  0  0  0  0  0  0  0  0  0  0  0
    4.5981   -3.5000    0.0000 C   0  0  0  0  0  0  0  0  0  0  0  0
    5.4641    4.0000    0.0000 C   0  0  0  0  0  0  0  0  0  0  0  0
    2.0000   -4.0000    0.0000 C   0  0  0  0  0  0  0  0  0  0  0  0
    5.4641    0.3800    0.0000 H   0  0  0  0  0  0  0  0  0  0  0  0
    4.3860    1.0826    0.0000 H   0  0  0  0  0  0  0  0  0  0  0  0
    3.9875    0.3923    0.0000 H   0  0  0  0  0  0  0  0  0  0  0  0
    6.0201   -0.0369    0.0000 H   0  0  0  0  0  0  0  0  0  0  0  0
    6.8671    0.1900    0.0000 H   0  0  0  0  0  0  0  0  0  0  0  0
    6.6401    1.0369    0.0000 H   0  0  0  0  0  0  0  0  0  0  0  0
    3.1951   -0.6900    0.0000 H   0  0  0  0  0  0  0  0  0  0  0  0
    6.8671    2.1900    0.0000 H   0  0  0  0  0  0  0  0  0  0  0  0
    4.0611    2.1900    0.0000 H   0  0  0  0  0  0  0  0  0  0  0  0
    5.1350   -2.1900    0.0000 H   0  0  0  0  0  0  0  0  0  0  0  0
    6.8671    3.8100    0.0000 H   0  0  0  0  0  0  0  0  0  0  0  0
    4.0611    3.8100    0.0000 H   0  0  0  0  0  0  0  0  0  0  0  0
    3.7320   -4.6200    0.0000 H   0  0  0  0  0  0  0  0  0  0  0  0
    2.3100   -1.4631    0.0000 H   0  0  0  0  0  0  0  0  0  0  0  0
    1.4631   -1.6900    0.0000 H   0  0  0  0  0  0  0  0  0  0  0  0
    1.6900   -2.5369    0.0000 H   0  0  0  0  0  0  0  0  0  0  0  0
    5.1350   -3.8100    0.0000 H   0  0  0  0  0  0  0  0  0  0  0  0
    5.4641    4.6200    0.0000 H   0  0  0  0  0  0  0  0  0  0  0  0
    1.6900   -3.4631    0.0000 H   0  0  0  0  0  0  0  0  0  0  0  0
    1.4631   -4.3100    0.0000 H   0  0  0  0  0  0  0  0  0  0  0  0
    2.3100   -4.5369    0.0000 H   0  0  0  0  0  0  0  0  0  0  0  0
  1  7  2  0  0  0  0
  2  7  1  0  0  0  0
  2  8  1  0  0  0  0
  2 27  1  0  0  0  0
  3  4  1  0  0  0  0
  3  5  1  0  0  0  0
  3  6  1  0  0  0  0
  3 21  1  0  0  0  0
  4  7  1  0  0  0  0
  4 22  1  0  0  0  0
  4 23  1  0  0  0  0
  5 10  2  0  0  0  0
  5 11  1  0  0  0  0
  6 24  1  0  0  0  0
  6 25  1  0  0  0  0
  6 26  1  0  0  0  0
  8  9  1  0  0  0  0
  8 13  2  0  0  0  0
  9 12  2  0  0  0  0
  9 17  1  0  0  0  0
 10 14  1  0  0  0  0
 10 28  1  0  0  0  0
 11 15  2  0  0  0  0
 11 29  1  0  0  0  0
 12 16  1  0  0  0  0
 12 20  1  0  0  0  0
 13 18  1  0  0  0  0
 13 30  1  0  0  0  0
 14 19  2  0  0  0  0
 14 31  1  0  0  0  0
 15 19  1  0  0  0  0
 15 32  1  0  0  0  0
 16 18  2  0  0  0  0
 16 33  1  0  0  0  0
 17 34  1  0  0  0  0
 17 35  1  0  0  0  0
 17 36  1  0  0  0  0
 18 37  1  0  0  0  0
 19 38  1  0  0  0  0
 20 39  1  0  0  0  0
 20 40  1  0  0  0  0
 20 41  1  0  0  0  0
M  END
> <PUBCHEM_COMPOUND_CID>
16337209

> <PUBCHEM_COMPOUND_CANONICALIZED>
1

> <PUBCHEM_CACTVS_COMPLEXITY>
309

> <PUBCHEM_CACTVS_HBOND_ACCEPTOR>
1

> <PUBCHEM_CACTVS_HBOND_DONOR>
1

> <PUBCHEM_CACTVS_ROTATABLE_BOND>
4

> <PUBCHEM_CACTVS_SUBSKEYS>
AAADceB6IAAAAAAAAAAAAAAAAAAAAAAAAAAwYAAAAAAAAAABQAAAHgAQAAAADQiBmAAywILAAACIAiVSUACCAAAhAgAIiAEAZIgIIDLAkZGEIAhglADIyAcYiMCOgAAAQAASAAAAAACAACQAAAAAAAAAAA==

> <PUBCHEM_IUPAC_OPENEYE_NAME>
N-(2,3-dimethylphenyl)-3-phenyl-butanamide

> <PUBCHEM_IUPAC_CAS_NAME>
N-(2,3-dimethylphenyl)-3-phenylbutanamide

> <PUBCHEM_IUPAC_NAME>
N-(2,3-dimethylphenyl)-3-phenylbutanamide

> <PUBCHEM_IUPAC_SYSTEMATIC_NAME>
N-(2,3-dimethylphenyl)-3-phenyl-butanamide

> <PUBCHEM_IUPAC_TRADITIONAL_NAME>
N-(2,3-dimethylphenyl)-3-phenyl-butyramide

> <PUBCHEM_IUPAC_INCHI>
InChI=1S/C18H21NO/c1-13-8-7-11-17(15(13)3)19-18(20)12-14(2)16-9-5-4-6-10-16/h4-11,14H,12H2,1-3H3,(H,19,20)

> <PUBCHEM_IUPAC_INCHIKEY>
NMBAIWKHIMHOBL-UHFFFAOYSA-N

> <PUBCHEM_XLOGP3>
3.6

> <PUBCHEM_EXACT_MASS>
267.162314

> <PUBCHEM_MOLECULAR_FORMULA>
C18H21NO

> <PUBCHEM_MOLECULAR_WEIGHT>
267.36544

> <PUBCHEM_OPENEYE_CAN_SMILES>
CC1=C(C(=CC=C1)NC(=O)CC(C)C2=CC=CC=C2)C

> <PUBCHEM_OPENEYE_ISO_SMILES>
CC1=C(C(=CC=C1)NC(=O)CC(C)C2=CC=CC=C2)C

> <PUBCHEM_CACTVS_TPSA>
29.1

> <PUBCHEM_MONOISOTOPIC_WEIGHT>
267.162314

> <PUBCHEM_TOTAL_CHARGE>
0

> <PUBCHEM_HEAVY_ATOM_COUNT>
20

> <PUBCHEM_ATOM_DEF_STEREO_COUNT>
0

> <PUBCHEM_ATOM_UDEF_STEREO_COUNT>
1

> <PUBCHEM_BOND_DEF_STEREO_COUNT>
0

> <PUBCHEM_BOND_UDEF_STEREO_COUNT>
0

> <PUBCHEM_ISOTOPIC_ATOM_COUNT>
0

> <PUBCHEM_COMPONENT_COUNT>
1

> <PUBCHEM_CACTVS_TAUTO_COUNT>
3

> <PUBCHEM_COORDINATE_TYPE>
1
5
255

> <PUBCHEM_BONDANNOTATIONS>
10  14  8
11  15  8
12  16  8
13  18  8
14  19  8
15  19  8
16  18  8
3  6  3
5  10  8
5  11  8
8  13  8
8  9  8
9  12  8

$$$$
16342979
  -OEChem-11301217192D

 49 52  0     1  0  0  0  0  0999 V2000
    6.6353   -1.0707    0.0000 O   0  0  0  0  0  0  0  0  0  0  0  0
    6.2781    0.6241    0.0000 N   0  0  0  0  0  0  0  0  0  0  0  0
    4.6783   -3.0926    0.0000 N   0  0  0  0  0  0  0  0  0  0  0  0
    7.2566    0.8304    0.0000 C   0  0  3  0  0  0  0  0  0  0  0  0
    7.9244    0.0861    0.0000 C   0  0  0  0  0  0  0  0  0  0  0  0
    7.5673    1.7809    0.0000 C   0  0  0  0  0  0  0  0  0  0  0  0
    4.6783   -1.4831    0.0000 C   0  0  0  0  0  0  0  0  0  0  0  0
    4.9889   -0.5326    0.0000 C   0  0  0  0  0  0  0  0  0  0  0  0
    3.7320   -1.7879    0.0000 C   0  0  0  0  0  0  0  0  0  0  0  0
    8.9030    0.2923    0.0000 C   0  0  0  0  0  0  0  0  0  0  0  0
    5.9674   -0.3264    0.0000 C   0  0  0  0  0  0  0  0  0  0  0  0
    3.7320   -2.7879    0.0000 C   0  0  0  0  0  0  0  0  0  0  0  0
    5.2619   -2.2879    0.0000 C   0  0  0  0  0  0  0  0  0  0  0  0
    8.5458    1.9871    0.0000 C   0  0  0  0  0  0  0  0  0  0  0  0
    6.8994    2.5252    0.0000 C   0  0  0  0  0  0  0  0  0  0  0  0
    2.8660   -1.2879    0.0000 C   0  0  0  0  0  0  0  0  0  0  0  0
    9.5708   -0.4520    0.0000 C   0  0  0  0  0  0  0  0  0  0  0  0
    9.2136    1.2428    0.0000 C   0  0  0  0  0  0  0  0  0  0  0  0
    2.8660   -3.2879    0.0000 C   0  0  0  0  0  0  0  0  0  0  0  0
    8.8564    2.9376    0.0000 C   0  0  0  0  0  0  0  0  0  0  0  0
    7.2101    3.4757    0.0000 C   0  0  0  0  0  0  0  0  0  0  0  0
    2.0000   -1.7879    0.0000 C   0  0  0  0  0  0  0  0  0  0  0  0
    2.0000   -2.7879    0.0000 C   0  0  0  0  0  0  0  0  0  0  0  0
    8.1886    3.6819    0.0000 C   0  0  0  0  0  0  0  0  0  0  0  0
   10.5493   -0.2458    0.0000 C   0  0  0  0  0  0  0  0  0  0  0  0
   10.1921    1.4490    0.0000 C   0  0  0  0  0  0  0  0  0  0  0  0
   10.8600    0.7047    0.0000 C   0  0  0  0  0  0  0  0  0  0  0  0
    7.0640    0.2410    0.0000 H   0  0  0  0  0  0  0  0  0  0  0  0
    7.3981   -0.2416    0.0000 H   0  0  0  0  0  0  0  0  0  0  0  0
    8.1557   -0.4892    0.0000 H   0  0  0  0  0  0  0  0  0  0  0  0
    5.8640    1.0856    0.0000 H   0  0  0  0  0  0  0  0  0  0  0  0
    4.9684    0.0871    0.0000 H   0  0  0  0  0  0  0  0  0  0  0  0
    4.3751   -0.4453    0.0000 H   0  0  0  0  0  0  0  0  0  0  0  0
    5.8819   -2.2879    0.0000 H   0  0  0  0  0  0  0  0  0  0  0  0
    4.8709   -3.6819    0.0000 H   0  0  0  0  0  0  0  0  0  0  0  0
    8.9598    1.5256    0.0000 H   0  0  0  0  0  0  0  0  0  0  0  0
    6.2928    2.3973    0.0000 H   0  0  0  0  0  0  0  0  0  0  0  0
    2.8660   -0.6679    0.0000 H   0  0  0  0  0  0  0  0  0  0  0  0
    9.3782   -1.0414    0.0000 H   0  0  0  0  0  0  0  0  0  0  0  0
    8.7996    1.7043    0.0000 H   0  0  0  0  0  0  0  0  0  0  0  0
    2.8660   -3.9079    0.0000 H   0  0  0  0  0  0  0  0  0  0  0  0
    9.4631    3.0655    0.0000 H   0  0  0  0  0  0  0  0  0  0  0  0
    6.7960    3.9372    0.0000 H   0  0  0  0  0  0  0  0  0  0  0  0
    1.4631   -1.4779    0.0000 H   0  0  0  0  0  0  0  0  0  0  0  0
    1.4631   -3.0979    0.0000 H   0  0  0  0  0  0  0  0  0  0  0  0
    8.3812    4.2712    0.0000 H   0  0  0  0  0  0  0  0  0  0  0  0
   10.9634   -0.7073    0.0000 H   0  0  0  0  0  0  0  0  0  0  0  0
   10.3847    2.0383    0.0000 H   0  0  0  0  0  0  0  0  0  0  0  0
   11.4666    0.8326    0.0000 H   0  0  0  0  0  0  0  0  0  0  0  0
  1 11  2  0  0  0  0
  2  4  1  0  0  0  0
  2 11  1  0  0  0  0
  2 31  1  0  0  0  0
  3 12  1  0  0  0  0
  3 13  1  0  0  0  0
  3 35  1  0  0  0  0
  4  5  1  0  0  0  0
  4  6  1  0  0  0  0
  4 28  1  0  0  0  0
  5 10  1  0  0  0  0
  5 29  1  0  0  0  0
  5 30  1  0  0  0  0
  6 14  2  0  0  0  0
  6 15  1  0  0  0  0
  7  8  1  0  0  0  0
  7  9  1  0  0  0  0
  7 13  2  0  0  0  0
  8 11  1  0  0  0  0
  8 32  1  0  0  0  0
  8 33  1  0  0  0  0
  9 12  1  0  0  0  0
  9 16  2  0  0  0  0
 10 17  2  0  0  0  0
 10 18  1  0  0  0  0
 12 19  2  0  0  0  0
 13 34  1  0  0  0  0
 14 20  1  0  0  0  0
 14 36  1  0  0  0  0
 15 21  2  0  0  0  0
 15 37  1  0  0  0  0
 16 22  1  0  0  0  0
 16 38  1  0  0  0  0
 17 25  1  0  0  0  0
 17 39  1  0  0  0  0
 18 26  2  0  0  0  0
 18 40  1  0  0  0  0
 19 23  1  0  0  0  0
 19 41  1  0  0  0  0
 20 24  2  0  0  0  0
 20 42  1  0  0  0  0
 21 24  1  0  0  0  0
 21 43  1  0  0  0  0
 22 23  2  0  0  0  0
 22 44  1  0  0  0  0
 23 45  1  0  0  0  0
 24 46  1  0  0  0  0
 25 27  2  0  0  0  0
 25 47  1  0  0  0  0
 26 27  1  0  0  0  0
 26 48  1  0  0  0  0
 27 49  1  0  0  0  0
M  END
> <PUBCHEM_COMPOUND_CID>
16342979

> <PUBCHEM_COMPOUND_CANONICALIZED>
1

> <PUBCHEM_CACTVS_COMPLEXITY>
467

> <PUBCHEM_CACTVS_HBOND_ACCEPTOR>
1

> <PUBCHEM_CACTVS_HBOND_DONOR>
2

> <PUBCHEM_CACTVS_ROTATABLE_BOND>
6

> <PUBCHEM_CACTVS_SUBSKEYS>
AAADceB7IAAAAAAAAAAAAAAAAAAAAWAAAAAwYMAAAAAAAFgB9AAAHgAQAAAADCjBngQ8wPLJkACoAzV3VACCgCAxAiAI2aE4ZJgIIPLAlZGEIAhglgDIyAccicCegAAAAAACAAAAAAAAAAQAAAAAAAAAAA==

> <PUBCHEM_IUPAC_OPENEYE_NAME>
N-(1,2-diphenylethyl)-2-(1H-indol-3-yl)acetamide

> <PUBCHEM_IUPAC_CAS_NAME>
N-(1,2-diphenylethyl)-2-(1H-indol-3-yl)acetamide

> <PUBCHEM_IUPAC_NAME>
N-(1,2-diphenylethyl)-2-(1H-indol-3-yl)acetamide

> <PUBCHEM_IUPAC_SYSTEMATIC_NAME>
N-(1,2-diphenylethyl)-2-(1H-indol-3-yl)ethanamide

> <PUBCHEM_IUPAC_TRADITIONAL_NAME>
N-(1,2-diphenylethyl)-2-(1H-indol-3-yl)acetamide

> <PUBCHEM_IUPAC_INCHI>
InChI=1S/C24H22N2O/c27-24(16-20-17-25-22-14-8-7-13-21(20)22)26-23(19-11-5-2-6-12-19)15-18-9-3-1-4-10-18/h1-14,17,23,25H,15-16H2,(H,26,27)

> <PUBCHEM_IUPAC_INCHIKEY>
YPWYMNKUMISFGB-UHFFFAOYSA-N

> <PUBCHEM_XLOGP3>
4.6

> <PUBCHEM_EXACT_MASS>
354.173213

> <PUBCHEM_MOLECULAR_FORMULA>
C24H22N2O

> <PUBCHEM_MOLECULAR_WEIGHT>
354.44428

> <PUBCHEM_OPENEYE_CAN_SMILES>
C1=CC=C(C=C1)CC(C2=CC=CC=C2)NC(=O)CC3=CNC4=CC=CC=C43

> <PUBCHEM_OPENEYE_ISO_SMILES>
C1=CC=C(C=C1)CC(C2=CC=CC=C2)NC(=O)CC3=CNC4=CC=CC=C43

> <PUBCHEM_CACTVS_TPSA>
44.9

> <PUBCHEM_MONOISOTOPIC_WEIGHT>
354.173213

> <PUBCHEM_TOTAL_CHARGE>
0

> <PUBCHEM_HEAVY_ATOM_COUNT>
27

> <PUBCHEM_ATOM_DEF_STEREO_COUNT>
0

> <PUBCHEM_ATOM_UDEF_STEREO_COUNT>
1

> <PUBCHEM_BOND_DEF_STEREO_COUNT>
0

> <PUBCHEM_BOND_UDEF_STEREO_COUNT>
0

> <PUBCHEM_ISOTOPIC_ATOM_COUNT>
0

> <PUBCHEM_COMPONENT_COUNT>
1

> <PUBCHEM_CACTVS_TAUTO_COUNT>
2

> <PUBCHEM_COORDINATE_TYPE>
1
5
255

> <PUBCHEM_BONDANNOTATIONS>
10  17  8
10  18  8
12  19  8
14  20  8
15  21  8
16  22  8
17  25  8
18  26  8
19  23  8
20  24  8
21  24  8
22  23  8
25  27  8
26  27  8
3  12  8
3  13  8
4  5  3
6  14  8
6  15  8
7  13  8
7  9  8
9  12  8
9  16  8

$$$$
16343577
  -OEChem-11301217192D

 52 55  0     1  0  0  0  0  0999 V2000
    5.6103    0.5210    0.0000 O   0  0  0  0  0  0  0  0  0  0  0  0
    7.2566   -0.0171    0.0000 N   0  0  0  0  0  0  0  0  0  0  0  0
    4.6783   -3.9400    0.0000 N   0  0  0  0  0  0  0  0  0  0  0  0
    7.5673    0.9335    0.0000 C   0  0  3  0  0  0  0  0  0  0  0  0
    6.8994    1.6778    0.0000 C   0  0  0  0  0  0  0  0  0  0  0  0
    4.9889   -1.3800    0.0000 C   0  0  0  0  0  0  0  0  0  0  0  0
    4.6783   -2.3305    0.0000 C   0  0  0  0  0  0  0  0  0  0  0  0
    5.9674   -1.1738    0.0000 C   0  0  0  0  0  0  0  0  0  0  0  0
    8.5458    1.1397    0.0000 C   0  0  0  0  0  0  0  0  0  0  0  0
    3.7320   -2.6353    0.0000 C   0  0  0  0  0  0  0  0  0  0  0  0
    6.2781   -0.2233    0.0000 C   0  0  0  0  0  0  0  0  0  0  0  0
    7.2101    2.6283    0.0000 C   0  0  0  0  0  0  0  0  0  0  0  0
    3.7320   -3.6353    0.0000 C   0  0  0  0  0  0  0  0  0  0  0  0
    5.2619   -3.1353    0.0000 C   0  0  0  0  0  0  0  0  0  0  0  0
    9.2136    0.3954    0.0000 C   0  0  0  0  0  0  0  0  0  0  0  0
    8.8564    2.0902    0.0000 C   0  0  0  0  0  0  0  0  0  0  0  0
    2.8660   -2.1353    0.0000 C   0  0  0  0  0  0  0  0  0  0  0  0
    2.8660   -4.1353    0.0000 C   0  0  0  0  0  0  0  0  0  0  0  0
    8.1886    2.8345    0.0000 C   0  0  0  0  0  0  0  0  0  0  0  0
    6.5422    3.3726    0.0000 C   0  0  0  0  0  0  0  0  0  0  0  0
    2.0000   -2.6353    0.0000 C   0  0  0  0  0  0  0  0  0  0  0  0
   10.1921    0.6016    0.0000 C   0  0  0  0  0  0  0  0  0  0  0  0
    9.8349    2.2964    0.0000 C   0  0  0  0  0  0  0  0  0  0  0  0
    2.0000   -3.6353    0.0000 C   0  0  0  0  0  0  0  0  0  0  0  0
   10.5028    1.5521    0.0000 C   0  0  0  0  0  0  0  0  0  0  0  0
    8.4993    3.7850    0.0000 C   0  0  0  0  0  0  0  0  0  0  0  0
    6.8529    4.3231    0.0000 C   0  0  0  0  0  0  0  0  0  0  0  0
    7.8314    4.5293    0.0000 C   0  0  0  0  0  0  0  0  0  0  0  0
    6.9606    0.8056    0.0000 H   0  0  0  0  0  0  0  0  0  0  0  0
    6.3525    1.9698    0.0000 H   0  0  0  0  0  0  0  0  0  0  0  0
    6.5169    1.1899    0.0000 H   0  0  0  0  0  0  0  0  0  0  0  0
    4.9684   -0.7604    0.0000 H   0  0  0  0  0  0  0  0  0  0  0  0
    4.3751   -1.2927    0.0000 H   0  0  0  0  0  0  0  0  0  0  0  0
    5.9880   -1.7935    0.0000 H   0  0  0  0  0  0  0  0  0  0  0  0
    6.5812   -1.2612    0.0000 H   0  0  0  0  0  0  0  0  0  0  0  0
    7.6707   -0.4785    0.0000 H   0  0  0  0  0  0  0  0  0  0  0  0
    5.8819   -3.1353    0.0000 H   0  0  0  0  0  0  0  0  0  0  0  0
    4.8709   -4.5293    0.0000 H   0  0  0  0  0  0  0  0  0  0  0  0
    9.0210   -0.1939    0.0000 H   0  0  0  0  0  0  0  0  0  0  0  0
    8.4424    2.5517    0.0000 H   0  0  0  0  0  0  0  0  0  0  0  0
    2.8660   -1.5153    0.0000 H   0  0  0  0  0  0  0  0  0  0  0  0
    2.8660   -4.7553    0.0000 H   0  0  0  0  0  0  0  0  0  0  0  0
    8.6027    2.3730    0.0000 H   0  0  0  0  0  0  0  0  0  0  0  0
    5.9356    3.2447    0.0000 H   0  0  0  0  0  0  0  0  0  0  0  0
    1.4631   -2.3253    0.0000 H   0  0  0  0  0  0  0  0  0  0  0  0
   10.6062    0.1401    0.0000 H   0  0  0  0  0  0  0  0  0  0  0  0
   10.0276    2.8857    0.0000 H   0  0  0  0  0  0  0  0  0  0  0  0
    1.4631   -3.9453    0.0000 H   0  0  0  0  0  0  0  0  0  0  0  0
   11.1095    1.6800    0.0000 H   0  0  0  0  0  0  0  0  0  0  0  0
    9.1059    3.9129    0.0000 H   0  0  0  0  0  0  0  0  0  0  0  0
    6.4388    4.7846    0.0000 H   0  0  0  0  0  0  0  0  0  0  0  0
    8.0240    5.1186    0.0000 H   0  0  0  0  0  0  0  0  0  0  0  0
  1 11  2  0  0  0  0
  2  4  1  0  0  0  0
  2 11  1  0  0  0  0
  2 36  1  0  0  0  0
  3 13  1  0  0  0  0
  3 14  1  0  0  0  0
  3 38  1  0  0  0  0
  4  5  1  0  0  0  0
  4  9  1  0  0  0  0
  4 29  1  0  0  0  0
  5 12  1  0  0  0  0
  5 30  1  0  0  0  0
  5 31  1  0  0  0  0
  6  7  1  0  0  0  0
  6  8  1  0  0  0  0
  6 32  1  0  0  0  0
  6 33  1  0  0  0  0
  7 10  1  0  0  0  0
  7 14  2  0  0  0  0
  8 11  1  0  0  0  0
  8 34  1  0  0  0  0
  8 35  1  0  0  0  0
  9 15  2  0  0  0  0
  9 16  1  0  0  0  0
 10 13  1  0  0  0  0
 10 17  2  0  0  0  0
 12 19  2  0  0  0  0
 12 20  1  0  0  0  0
 13 18  2  0  0  0  0
 14 37  1  0  0  0  0
 15 22  1  0  0  0  0
 15 39  1  0  0  0  0
 16 23  2  0  0  0  0
 16 40  1  0  0  0  0
 17 21  1  0  0  0  0
 17 41  1  0  0  0  0
 18 24  1  0  0  0  0
 18 42  1  0  0  0  0
 19 26  1  0  0  0  0
 19 43  1  0  0  0  0
 20 27  2  0  0  0  0
 20 44  1  0  0  0  0
 21 24  2  0  0  0  0
 21 45  1  0  0  0  0
 22 25  2  0  0  0  0
 22 46  1  0  0  0  0
 23 25  1  0  0  0  0
 23 47  1  0  0  0  0
 24 48  1  0  0  0  0
 25 49  1  0  0  0  0
 26 28  2  0  0  0  0
 26 50  1  0  0  0  0
 27 28  1  0  0  0  0
 27 51  1  0  0  0  0
 28 52  1  0  0  0  0
M  END
> <PUBCHEM_COMPOUND_CID>
16343577

> <PUBCHEM_COMPOUND_CANONICALIZED>
1

> <PUBCHEM_CACTVS_COMPLEXITY>
481

> <PUBCHEM_CACTVS_HBOND_ACCEPTOR>
1

> <PUBCHEM_CACTVS_HBOND_DONOR>
2

> <PUBCHEM_CACTVS_ROTATABLE_BOND>
7

> <PUBCHEM_CACTVS_SUBSKEYS>
AAADceB7IAAAAAAAAAAAAAAAAAAAAWAAAAAwYMAAAAAAAFgB9AAAHgAQAAAADCjBngQ8wPLJkACoAzV3VACCgCAxAiAI2aE4ZJgIIPLAkZGEIAhglgDIyAcYicCOgAAAAAACAAAAAAAAAAQAAAAAAAAAAA==

> <PUBCHEM_IUPAC_OPENEYE_NAME>
N-(1,2-diphenylethyl)-3-(1H-indol-3-yl)propanamide

> <PUBCHEM_IUPAC_CAS_NAME>
N-(1,2-diphenylethyl)-3-(1H-indol-3-yl)propanamide

> <PUBCHEM_IUPAC_NAME>
N-(1,2-diphenylethyl)-3-(1H-indol-3-yl)propanamide

> <PUBCHEM_IUPAC_SYSTEMATIC_NAME>
N-(1,2-diphenylethyl)-3-(1H-indol-3-yl)propanamide

> <PUBCHEM_IUPAC_TRADITIONAL_NAME>
N-(1,2-diphenylethyl)-3-(1H-indol-3-yl)propionamide

> <PUBCHEM_IUPAC_INCHI>
InChI=1S/C25H24N2O/c28-25(16-15-21-18-26-23-14-8-7-13-22(21)23)27-24(20-11-5-2-6-12-20)17-19-9-3-1-4-10-19/h1-14,18,24,26H,15-17H2,(H,27,28)

> <PUBCHEM_IUPAC_INCHIKEY>
FACYQDWNMCVXDL-UHFFFAOYSA-N

> <PUBCHEM_XLOGP3>
5

> <PUBCHEM_EXACT_MASS>
368.188863

> <PUBCHEM_MOLECULAR_FORMULA>
C25H24N2O

> <PUBCHEM_MOLECULAR_WEIGHT>
368.47086

> <PUBCHEM_OPENEYE_CAN_SMILES>
C1=CC=C(C=C1)CC(C2=CC=CC=C2)NC(=O)CCC3=CNC4=CC=CC=C43

> <PUBCHEM_OPENEYE_ISO_SMILES>
C1=CC=C(C=C1)CC(C2=CC=CC=C2)NC(=O)CCC3=CNC4=CC=CC=C43

> <PUBCHEM_CACTVS_TPSA>
44.9

> <PUBCHEM_MONOISOTOPIC_WEIGHT>
368.188863

> <PUBCHEM_TOTAL_CHARGE>
0

> <PUBCHEM_HEAVY_ATOM_COUNT>
28

> <PUBCHEM_ATOM_DEF_STEREO_COUNT>
0

> <PUBCHEM_ATOM_UDEF_STEREO_COUNT>
1

> <PUBCHEM_BOND_DEF_STEREO_COUNT>
0

> <PUBCHEM_BOND_UDEF_STEREO_COUNT>
0

> <PUBCHEM_ISOTOPIC_ATOM_COUNT>
0

> <PUBCHEM_COMPONENT_COUNT>
1

> <PUBCHEM_CACTVS_TAUTO_COUNT>
2

> <PUBCHEM_COORDINATE_TYPE>
1
5
255

> <PUBCHEM_BONDANNOTATIONS>
10  13  8
10  17  8
12  19  8
12  20  8
13  18  8
15  22  8
16  23  8
17  21  8
18  24  8
19  26  8
20  27  8
21  24  8
22  25  8
23  25  8
26  28  8
27  28  8
3  13  8
3  14  8
4  5  3
7  10  8
7  14  8
9  15  8
9  16  8

$$$$
16349279
  -OEChem-11301217202D

 43 45  0     0  0  0  0  0  0999 V2000
    6.6353   -0.8016    0.0000 O   0  0  0  0  0  0  0  0  0  0  0  0
    6.2781    0.8932    0.0000 N   0  0  0  0  0  0  0  0  0  0  0  0
    4.6783   -2.8236    0.0000 N   0  0  0  0  0  0  0  0  0  0  0  0
    9.2136    1.5118    0.0000 C   0  0  0  0  0  0  0  0  0  0  0  0
   10.1921    1.7180    0.0000 C   0  0  0  0  0  0  0  0  0  0  0  0
    8.5458    2.2561    0.0000 C   0  0  0  0  0  0  0  0  0  0  0  0
   10.5028    2.6686    0.0000 C   0  0  0  0  0  0  0  0  0  0  0  0
    9.8349    3.4129    0.0000 C   0  0  0  0  0  0  0  0  0  0  0  0
    7.5673    2.0499    0.0000 C   0  0  0  0  0  0  0  0  0  0  0  0
    8.8564    3.2066    0.0000 C   0  0  0  0  0  0  0  0  0  0  0  0
    7.2566    1.0994    0.0000 C   0  0  0  0  0  0  0  0  0  0  0  0
    4.6783   -1.2141    0.0000 C   0  0  0  0  0  0  0  0  0  0  0  0
    4.9889   -0.2636    0.0000 C   0  0  0  0  0  0  0  0  0  0  0  0
    3.7320   -1.5188    0.0000 C   0  0  0  0  0  0  0  0  0  0  0  0
    5.9674   -0.0573    0.0000 C   0  0  0  0  0  0  0  0  0  0  0  0
    3.7320   -2.5188    0.0000 C   0  0  0  0  0  0  0  0  0  0  0  0
    5.2619   -2.0188    0.0000 C   0  0  0  0  0  0  0  0  0  0  0  0
    2.8660   -1.0188    0.0000 C   0  0  0  0  0  0  0  0  0  0  0  0
    2.8660   -3.0188    0.0000 C   0  0  0  0  0  0  0  0  0  0  0  0
    2.0000   -1.5188    0.0000 C   0  0  0  0  0  0  0  0  0  0  0  0
    2.0000   -2.5188    0.0000 C   0  0  0  0  0  0  0  0  0  0  0  0
    8.6873    1.1842    0.0000 H   0  0  0  0  0  0  0  0  0  0  0  0
    9.4449    0.9366    0.0000 H   0  0  0  0  0  0  0  0  0  0  0  0
   10.2127    1.0984    0.0000 H   0  0  0  0  0  0  0  0  0  0  0  0
   10.8059    1.6307    0.0000 H   0  0  0  0  0  0  0  0  0  0  0  0
   11.0497    2.3766    0.0000 H   0  0  0  0  0  0  0  0  0  0  0  0
   10.8853    3.1565    0.0000 H   0  0  0  0  0  0  0  0  0  0  0  0
   10.3613    3.7405    0.0000 H   0  0  0  0  0  0  0  0  0  0  0  0
    9.6037    3.9881    0.0000 H   0  0  0  0  0  0  0  0  0  0  0  0
    7.5467    2.6696    0.0000 H   0  0  0  0  0  0  0  0  0  0  0  0
    6.9534    2.1373    0.0000 H   0  0  0  0  0  0  0  0  0  0  0  0
    8.4424    3.6681    0.0000 H   0  0  0  0  0  0  0  0  0  0  0  0
    7.2772    0.4797    0.0000 H   0  0  0  0  0  0  0  0  0  0  0  0
    7.8704    1.0120    0.0000 H   0  0  0  0  0  0  0  0  0  0  0  0
    5.8640    1.3546    0.0000 H   0  0  0  0  0  0  0  0  0  0  0  0
    4.9684    0.3561    0.0000 H   0  0  0  0  0  0  0  0  0  0  0  0
    4.3751   -0.1762    0.0000 H   0  0  0  0  0  0  0  0  0  0  0  0
    5.8819   -2.0188    0.0000 H   0  0  0  0  0  0  0  0  0  0  0  0
    4.8709   -3.4129    0.0000 H   0  0  0  0  0  0  0  0  0  0  0  0
    2.8660   -0.3988    0.0000 H   0  0  0  0  0  0  0  0  0  0  0  0
    2.8660   -3.6388    0.0000 H   0  0  0  0  0  0  0  0  0  0  0  0
    1.4631   -1.2088    0.0000 H   0  0  0  0  0  0  0  0  0  0  0  0
    1.4631   -2.8288    0.0000 H   0  0  0  0  0  0  0  0  0  0  0  0
  1 15  2  0  0  0  0
  2 11  1  0  0  0  0
  2 15  1  0  0  0  0
  2 35  1  0  0  0  0
  3 16  1  0  0  0  0
  3 17  1  0  0  0  0
  3 39  1  0  0  0  0
  4  5  1  0  0  0  0
  4  6  1  0  0  0  0
  4 22  1  0  0  0  0
  4 23  1  0  0  0  0
  5  7  1  0  0  0  0
  5 24  1  0  0  0  0
  5 25  1  0  0  0  0
  6  9  1  0  0  0  0
  6 10  2  0  0  0  0
  7  8  1  0  0  0  0
  7 26  1  0  0  0  0
  7 27  1  0  0  0  0
  8 10  1  0  0  0  0
  8 28  1  0  0  0  0
  8 29  1  0  0  0  0
  9 11  1  0  0  0  0
  9 30  1  0  0  0  0
  9 31  1  0  0  0  0
 10 32  1  0  0  0  0
 11 33  1  0  0  0  0
 11 34  1  0  0  0  0
 12 13  1  0  0  0  0
 12 14  1  0  0  0  0
 12 17  2  0  0  0  0
 13 15  1  0  0  0  0
 13 36  1  0  0  0  0
 13 37  1  0  0  0  0
 14 16  1  0  0  0  0
 14 18  2  0  0  0  0
 16 19  2  0  0  0  0
 17 38  1  0  0  0  0
 18 20  1  0  0  0  0
 18 40  1  0  0  0  0
 19 21  1  0  0  0  0
 19 41  1  0  0  0  0
 20 21  2  0  0  0  0
 20 42  1  0  0  0  0
 21 43  1  0  0  0  0
M  END
> <PUBCHEM_COMPOUND_CID>
16349279

> <PUBCHEM_COMPOUND_CANONICALIZED>
1

> <PUBCHEM_CACTVS_COMPLEXITY>
391

> <PUBCHEM_CACTVS_HBOND_ACCEPTOR>
1

> <PUBCHEM_CACTVS_HBOND_DONOR>
2

> <PUBCHEM_CACTVS_ROTATABLE_BOND>
5

> <PUBCHEM_CACTVS_SUBSKEYS>
AAADceB7IAAAAAAAAAAAAAAAAAAAAWAAAAAwQAAAAAAAAFgB8AAAHgAQAAAADAjBngQ8wPLJkACoAzV3VACCgCAxAiAI2aE4ZJgIIPLAlZGEIAhglgDIyAccicCegAAAAAACAAAAAAAAAAQAAAAAAAAAAA==

> <PUBCHEM_IUPAC_OPENEYE_NAME>
N-[2-(cyclohexen-1-yl)ethyl]-2-(1H-indol-3-yl)acetamide

> <PUBCHEM_IUPAC_CAS_NAME>
N-[2-(1-cyclohexenyl)ethyl]-2-(1H-indol-3-yl)acetamide

> <PUBCHEM_IUPAC_NAME>
N-[2-(cyclohexen-1-yl)ethyl]-2-(1H-indol-3-yl)acetamide

> <PUBCHEM_IUPAC_SYSTEMATIC_NAME>
N-[2-(cyclohexen-1-yl)ethyl]-2-(1H-indol-3-yl)ethanamide

> <PUBCHEM_IUPAC_TRADITIONAL_NAME>
N-[2-(cyclohexen-1-yl)ethyl]-2-(1H-indol-3-yl)acetamide

> <PUBCHEM_IUPAC_INCHI>
InChI=1S/C18H22N2O/c21-18(19-11-10-14-6-2-1-3-7-14)12-15-13-20-17-9-5-4-8-16(15)17/h4-6,8-9,13,20H,1-3,7,10-12H2,(H,19,21)

> <PUBCHEM_IUPAC_INCHIKEY>
RCMCHVWQZBPBEG-UHFFFAOYSA-N

> <PUBCHEM_XLOGP3>
3.2

> <PUBCHEM_EXACT_MASS>
282.173213

> <PUBCHEM_MOLECULAR_FORMULA>
C18H22N2O

> <PUBCHEM_MOLECULAR_WEIGHT>
282.38008

> <PUBCHEM_OPENEYE_CAN_SMILES>
C1CCC(=CC1)CCNC(=O)CC2=CNC3=CC=CC=C32

> <PUBCHEM_OPENEYE_ISO_SMILES>
C1CCC(=CC1)CCNC(=O)CC2=CNC3=CC=CC=C32

> <PUBCHEM_CACTVS_TPSA>
44.9

> <PUBCHEM_MONOISOTOPIC_WEIGHT>
282.173213

> <PUBCHEM_TOTAL_CHARGE>
0

> <PUBCHEM_HEAVY_ATOM_COUNT>
21

> <PUBCHEM_ATOM_DEF_STEREO_COUNT>
0

> <PUBCHEM_ATOM_UDEF_STEREO_COUNT>
0

> <PUBCHEM_BOND_DEF_STEREO_COUNT>
0

> <PUBCHEM_BOND_UDEF_STEREO_COUNT>
0

> <PUBCHEM_ISOTOPIC_ATOM_COUNT>
0

> <PUBCHEM_COMPONENT_COUNT>
1

> <PUBCHEM_CACTVS_TAUTO_COUNT>
2

> <PUBCHEM_COORDINATE_TYPE>
1
5
255

> <PUBCHEM_BONDANNOTATIONS>
12  14  8
12  17  8
14  16  8
14  18  8
16  19  8
18  20  8
19  21  8
20  21  8
3  16  8
3  17  8

$$$$
