29259107
  -OEChem-03221309332D

 37 39  0     1  0  0  0  0  0999 V2000
    4.3520   -0.2489    0.0000 N   0  0  0  0  0  0  0  0  0  0  0  0
    2.6200   -1.2489    0.0000 N   0  3  0  0  0  0  0  0  0  0  0  0
    5.2181    0.2511    0.0000 C   0  0  2  0  0  0  0  0  0  0  0  0
    5.2181    1.2511    0.0000 C   0  0  0  0  0  0  0  0  0  0  0  0
    6.0841   -0.2489    0.0000 C   0  0  0  0  0  0  0  0  0  0  0  0
    4.3520   -1.2489    0.0000 C   0  0  0  0  0  0  0  0  0  0  0  0
    3.4860    0.2511    0.0000 C   0  0  0  0  0  0  0  0  0  0  0  0
    3.4860   -1.7489    0.0000 C   0  0  0  0  0  0  0  0  0  0  0  0
    2.6200   -0.2489    0.0000 C   0  0  0  0  0  0  0  0  0  0  0  0
    6.0841    1.7511    0.0000 C   0  0  0  0  0  0  0  0  0  0  0  0
    6.9501    0.2511    0.0000 C   0  0  0  0  0  0  0  0  0  0  0  0
    6.9501    1.2511    0.0000 C   0  0  0  0  0  0  0  0  0  0  0  0
    7.8441   -0.2835    0.0000 C   0  0  0  0  0  0  0  0  0  0  0  0
    7.8441    1.7858    0.0000 C   0  0  0  0  0  0  0  0  0  0  0  0
    8.7501    0.2303    0.0000 C   0  0  0  0  0  0  0  0  0  0  0  0
    8.7501    1.2720    0.0000 C   0  0  0  0  0  0  0  0  0  0  0  0
    5.2181   -0.3689    0.0000 H   0  0  0  0  0  0  0  0  0  0  0  0
    5.0060    1.8338    0.0000 H   0  0  0  0  0  0  0  0  0  0  0  0
    4.6075    1.1435    0.0000 H   0  0  0  0  0  0  0  0  0  0  0  0
    5.6856   -0.7238    0.0000 H   0  0  0  0  0  0  0  0  0  0  0  0
    6.4826   -0.7238    0.0000 H   0  0  0  0  0  0  0  0  0  0  0  0
    4.5641   -1.8315    0.0000 H   0  0  0  0  0  0  0  0  0  0  0  0
    4.9626   -1.1412    0.0000 H   0  0  0  0  0  0  0  0  0  0  0  0
    3.8846    0.7261    0.0000 H   0  0  0  0  0  0  0  0  0  0  0  0
    3.0875    0.7261    0.0000 H   0  0  0  0  0  0  0  0  0  0  0  0
    3.0875   -2.2238    0.0000 H   0  0  0  0  0  0  0  0  0  0  0  0
    3.8846   -2.2238    0.0000 H   0  0  0  0  0  0  0  0  0  0  0  0
    2.4080    0.3337    0.0000 H   0  0  0  0  0  0  0  0  0  0  0  0
    2.0094   -0.3565    0.0000 H   0  0  0  0  0  0  0  0  0  0  0  0
    6.4826    2.2261    0.0000 H   0  0  0  0  0  0  0  0  0  0  0  0
    5.6856    2.2261    0.0000 H   0  0  0  0  0  0  0  0  0  0  0  0
    2.0000   -1.2489    0.0000 H   0  0  0  0  0  0  0  0  0  0  0  0
    2.3100   -1.7858    0.0000 H   0  0  0  0  0  0  0  0  0  0  0  0
    7.8369   -0.9035    0.0000 H   0  0  0  0  0  0  0  0  0  0  0  0
    7.8369    2.4058    0.0000 H   0  0  0  0  0  0  0  0  0  0  0  0
    9.2859   -0.0817    0.0000 H   0  0  0  0  0  0  0  0  0  0  0  0
    9.2859    1.5840    0.0000 H   0  0  0  0  0  0  0  0  0  0  0  0
  3  1  1  6  0  0  0
  1  6  1  0  0  0  0
  1  7  1  0  0  0  0
  2  8  1  0  0  0  0
  2  9  1  0  0  0  0
  2 32  1  0  0  0  0
  2 33  1  0  0  0  0
  3  4  1  0  0  0  0
  3  5  1  0  0  0  0
  3 17  1  0  0  0  0
  4 10  1  0  0  0  0
  4 18  1  0  0  0  0
  4 19  1  0  0  0  0
  5 11  1  0  0  0  0
  5 20  1  0  0  0  0
  5 21  1  0  0  0  0
  6  8  1  0  0  0  0
  6 22  1  0  0  0  0
  6 23  1  0  0  0  0
  7  9  1  0  0  0  0
  7 24  1  0  0  0  0
  7 25  1  0  0  0  0
  8 26  1  0  0  0  0
  8 27  1  0  0  0  0
  9 28  1  0  0  0  0
  9 29  1  0  0  0  0
 10 12  1  0  0  0  0
 10 30  1  0  0  0  0
 10 31  1  0  0  0  0
 11 12  1  0  0  0  0
 11 13  2  0  0  0  0
 12 14  2  0  0  0  0
 13 15  1  0  0  0  0
 13 34  1  0  0  0  0
 14 16  1  0  0  0  0
 14 35  1  0  0  0  0
 15 16  2  0  0  0  0
 15 36  1  0  0  0  0
 16 37  1  0  0  0  0
M  CHG  1   2   1
M  END
> <PUBCHEM_COMPOUND_CID>
29259107

> <PUBCHEM_COMPOUND_CANONICALIZED>
1

> <PUBCHEM_CACTVS_COMPLEXITY>
223

> <PUBCHEM_CACTVS_HBOND_ACCEPTOR>
1

> <PUBCHEM_CACTVS_HBOND_DONOR>
1

> <PUBCHEM_CACTVS_ROTATABLE_BOND>
1

> <PUBCHEM_CACTVS_SUBSKEYS>
AAADceBzAAAAAAAAAAAAAAAAAAAAAAAAAAA8YIAAAAAAAADBAAAAHAAQAAAADCjBGAQwAIPAAACAAiBCAAACAAAgAAAIiIAIAIgIYCKAkRGUIAAgkACIiAcQgIAOgAAAAAAQAAAQAACAACAAAAAAAAAAAA==

> <PUBCHEM_IUPAC_OPENEYE_NAME>
1-[(2R)-tetralin-2-yl]piperazin-4-ium

> <PUBCHEM_IUPAC_CAS_NAME>
1-[(2R)-1,2,3,4-tetrahydronaphthalen-2-yl]piperazin-4-ium

> <PUBCHEM_IUPAC_NAME>
1-[(2R)-1,2,3,4-tetrahydronaphthalen-2-yl]piperazin-4-ium

> <PUBCHEM_IUPAC_SYSTEMATIC_NAME>
1-[(2R)-1,2,3,4-tetrahydronaphthalen-2-yl]piperazin-4-ium

> <PUBCHEM_IUPAC_TRADITIONAL_NAME>
1-[(2R)-tetralin-2-yl]piperazin-4-ium

> <PUBCHEM_IUPAC_INCHI>
InChI=1S/C14H20N2/c1-2-4-13-11-14(6-5-12(13)3-1)16-9-7-15-8-10-16/h1-4,14-15H,5-11H2/p+1/t14-/m1/s1

> <PUBCHEM_IUPAC_INCHIKEY>
KEFHPVYDYSDBRR-CQSZACIVSA-O

> <PUBCHEM_XLOGP3>
2.4

> <PUBCHEM_EXACT_MASS>
217.170474

> <PUBCHEM_MOLECULAR_FORMULA>
C14H21N2+

> <PUBCHEM_MOLECULAR_WEIGHT>
217.32994

> <PUBCHEM_OPENEYE_CAN_SMILES>
C1CC2=CC=CC=C2CC1N3CC[NH2+]CC3

> <PUBCHEM_OPENEYE_ISO_SMILES>
C1CC2=CC=CC=C2C[C@@H]1N3CC[NH2+]CC3

> <PUBCHEM_CACTVS_TPSA>
19.8

> <PUBCHEM_MONOISOTOPIC_WEIGHT>
217.170474

> <PUBCHEM_TOTAL_CHARGE>
1

> <PUBCHEM_HEAVY_ATOM_COUNT>
16

> <PUBCHEM_ATOM_DEF_STEREO_COUNT>
1

> <PUBCHEM_ATOM_UDEF_STEREO_COUNT>
0

> <PUBCHEM_BOND_DEF_STEREO_COUNT>
0

> <PUBCHEM_BOND_UDEF_STEREO_COUNT>
0

> <PUBCHEM_ISOTOPIC_ATOM_COUNT>
0

> <PUBCHEM_COMPONENT_COUNT>
1

> <PUBCHEM_CACTVS_TAUTO_COUNT>
1

> <PUBCHEM_COORDINATE_TYPE>
1
5
255

> <PUBCHEM_BONDANNOTATIONS>
3  1  6
11  12  8
11  13  8
12  14  8
13  15  8
14  16  8
15  16  8

$$$$
29259109
  -OEChem-03221309332D

 37 39  0     1  0  0  0  0  0999 V2000
    4.3520   -0.2489    0.0000 N   0  0  0  0  0  0  0  0  0  0  0  0
    2.6200   -1.2489    0.0000 N   0  3  0  0  0  0  0  0  0  0  0  0
    5.2181    0.2511    0.0000 C   0  0  1  0  0  0  0  0  0  0  0  0
    5.2181    1.2511    0.0000 C   0  0  0  0  0  0  0  0  0  0  0  0
    6.0841   -0.2489    0.0000 C   0  0  0  0  0  0  0  0  0  0  0  0
    4.3520   -1.2489    0.0000 C   0  0  0  0  0  0  0  0  0  0  0  0
    3.4860    0.2511    0.0000 C   0  0  0  0  0  0  0  0  0  0  0  0
    3.4860   -1.7489    0.0000 C   0  0  0  0  0  0  0  0  0  0  0  0
    2.6200   -0.2489    0.0000 C   0  0  0  0  0  0  0  0  0  0  0  0
    6.0841    1.7511    0.0000 C   0  0  0  0  0  0  0  0  0  0  0  0
    6.9501    0.2511    0.0000 C   0  0  0  0  0  0  0  0  0  0  0  0
    6.9501    1.2511    0.0000 C   0  0  0  0  0  0  0  0  0  0  0  0
    7.8441   -0.2835    0.0000 C   0  0  0  0  0  0  0  0  0  0  0  0
    7.8441    1.7858    0.0000 C   0  0  0  0  0  0  0  0  0  0  0  0
    8.7501    0.2303    0.0000 C   0  0  0  0  0  0  0  0  0  0  0  0
    8.7501    1.2720    0.0000 C   0  0  0  0  0  0  0  0  0  0  0  0
    5.2181   -0.3689    0.0000 H   0  0  0  0  0  0  0  0  0  0  0  0
    5.0060    1.8338    0.0000 H   0  0  0  0  0  0  0  0  0  0  0  0
    4.6075    1.1435    0.0000 H   0  0  0  0  0  0  0  0  0  0  0  0
    5.6856   -0.7238    0.0000 H   0  0  0  0  0  0  0  0  0  0  0  0
    6.4826   -0.7238    0.0000 H   0  0  0  0  0  0  0  0  0  0  0  0
    4.5641   -1.8315    0.0000 H   0  0  0  0  0  0  0  0  0  0  0  0
    4.9626   -1.1412    0.0000 H   0  0  0  0  0  0  0  0  0  0  0  0
    3.8846    0.7261    0.0000 H   0  0  0  0  0  0  0  0  0  0  0  0
    3.0875    0.7261    0.0000 H   0  0  0  0  0  0  0  0  0  0  0  0
    3.0875   -2.2238    0.0000 H   0  0  0  0  0  0  0  0  0  0  0  0
    3.8846   -2.2238    0.0000 H   0  0  0  0  0  0  0  0  0  0  0  0
    2.4080    0.3337    0.0000 H   0  0  0  0  0  0  0  0  0  0  0  0
    2.0094   -0.3565    0.0000 H   0  0  0  0  0  0  0  0  0  0  0  0
    6.4826    2.2261    0.0000 H   0  0  0  0  0  0  0  0  0  0  0  0
    5.6856    2.2261    0.0000 H   0  0  0  0  0  0  0  0  0  0  0  0
    2.0000   -1.2489    0.0000 H   0  0  0  0  0  0  0  0  0  0  0  0
    2.3100   -1.7858    0.0000 H   0  0  0  0  0  0  0  0  0  0  0  0
    7.8369   -0.9035    0.0000 H   0  0  0  0  0  0  0  0  0  0  0  0
    7.8369    2.4058    0.0000 H   0  0  0  0  0  0  0  0  0  0  0  0
    9.2859   -0.0817    0.0000 H   0  0  0  0  0  0  0  0  0  0  0  0
    9.2859    1.5840    0.0000 H   0  0  0  0  0  0  0  0  0  0  0  0
  3  1  1  1  0  0  0
  1  6  1  0  0  0  0
  1  7  1  0  0  0  0
  2  8  1  0  0  0  0
  2  9  1  0  0  0  0
  2 32  1  0  0  0  0
  2 33  1  0  0  0  0
  3  4  1  0  0  0  0
  3  5  1  0  0  0  0
  3 17  1  0  0  0  0
  4 10  1  0  0  0  0
  4 18  1  0  0  0  0
  4 19  1  0  0  0  0
  5 11  1  0  0  0  0
  5 20  1  0  0  0  0
  5 21  1  0  0  0  0
  6  8  1  0  0  0  0
  6 22  1  0  0  0  0
  6 23  1  0  0  0  0
  7  9  1  0  0  0  0
  7 24  1  0  0  0  0
  7 25  1  0  0  0  0
  8 26  1  0  0  0  0
  8 27  1  0  0  0  0
  9 28  1  0  0  0  0
  9 29  1  0  0  0  0
 10 12  1  0  0  0  0
 10 30  1  0  0  0  0
 10 31  1  0  0  0  0
 11 12  1  0  0  0  0
 11 13  2  0  0  0  0
 12 14  2  0  0  0  0
 13 15  1  0  0  0  0
 13 34  1  0  0  0  0
 14 16  1  0  0  0  0
 14 35  1  0  0  0  0
 15 16  2  0  0  0  0
 15 36  1  0  0  0  0
 16 37  1  0  0  0  0
M  CHG  1   2   1
M  END
> <PUBCHEM_COMPOUND_CID>
29259109

> <PUBCHEM_COMPOUND_CANONICALIZED>
1

> <PUBCHEM_CACTVS_COMPLEXITY>
223

> <PUBCHEM_CACTVS_HBOND_ACCEPTOR>
1

> <PUBCHEM_CACTVS_HBOND_DONOR>
1

> <PUBCHEM_CACTVS_ROTATABLE_BOND>
1

> <PUBCHEM_CACTVS_SUBSKEYS>
AAADceBzAAAAAAAAAAAAAAAAAAAAAAAAAAA8YIAAAAAAAADBAAAAHAAQAAAADCjBGAQwAIPAAACAAiBCAAACAAAgAAAIiIAIAIgIYCKAkRGUIAAgkACIiAcQgIAOgAAAAAAQAAAQAACAACAAAAAAAAAAAA==

> <PUBCHEM_IUPAC_OPENEYE_NAME>
1-[(2S)-tetralin-2-yl]piperazin-4-ium

> <PUBCHEM_IUPAC_CAS_NAME>
1-[(2S)-1,2,3,4-tetrahydronaphthalen-2-yl]piperazin-4-ium

> <PUBCHEM_IUPAC_NAME>
1-[(2S)-1,2,3,4-tetrahydronaphthalen-2-yl]piperazin-4-ium

> <PUBCHEM_IUPAC_SYSTEMATIC_NAME>
1-[(2S)-1,2,3,4-tetrahydronaphthalen-2-yl]piperazin-4-ium

> <PUBCHEM_IUPAC_TRADITIONAL_NAME>
1-[(2S)-tetralin-2-yl]piperazin-4-ium

> <PUBCHEM_IUPAC_INCHI>
InChI=1S/C14H20N2/c1-2-4-13-11-14(6-5-12(13)3-1)16-9-7-15-8-10-16/h1-4,14-15H,5-11H2/p+1/t14-/m0/s1

> <PUBCHEM_IUPAC_INCHIKEY>
KEFHPVYDYSDBRR-AWEZNQCLSA-O

> <PUBCHEM_XLOGP3>
2.4

> <PUBCHEM_EXACT_MASS>
217.170474

> <PUBCHEM_MOLECULAR_FORMULA>
C14H21N2+

> <PUBCHEM_MOLECULAR_WEIGHT>
217.32994

> <PUBCHEM_OPENEYE_CAN_SMILES>
C1CC2=CC=CC=C2CC1N3CC[NH2+]CC3

> <PUBCHEM_OPENEYE_ISO_SMILES>
C1CC2=CC=CC=C2C[C@H]1N3CC[NH2+]CC3

> <PUBCHEM_CACTVS_TPSA>
19.8

> <PUBCHEM_MONOISOTOPIC_WEIGHT>
217.170474

> <PUBCHEM_TOTAL_CHARGE>
1

> <PUBCHEM_HEAVY_ATOM_COUNT>
16

> <PUBCHEM_ATOM_DEF_STEREO_COUNT>
1

> <PUBCHEM_ATOM_UDEF_STEREO_COUNT>
0

> <PUBCHEM_BOND_DEF_STEREO_COUNT>
0

> <PUBCHEM_BOND_UDEF_STEREO_COUNT>
0

> <PUBCHEM_ISOTOPIC_ATOM_COUNT>
0

> <PUBCHEM_COMPONENT_COUNT>
1

> <PUBCHEM_CACTVS_TAUTO_COUNT>
1

> <PUBCHEM_COORDINATE_TYPE>
1
5
255

> <PUBCHEM_BONDANNOTATIONS>
3  1  5
11  12  8
11  13  8
12  14  8
13  15  8
14  16  8
15  16  8

$$$$
29260126
  -OEChem-03221309332D

 34 36  0     0  0  0  0  0  0999 V2000
    5.5443    0.9737    0.0000 N   0  0  0  0  0  0  0  0  0  0  0  0
    5.5443   -0.6357    0.0000 N   0  0  0  0  0  0  0  0  0  0  0  0
    6.1279    0.1690    0.0000 C   0  0  0  0  0  0  0  0  0  0  0  0
    4.5981    0.6690    0.0000 C   0  0  0  0  0  0  0  0  0  0  0  0
    7.1279    0.1690    0.0000 C   0  0  0  0  0  0  0  0  0  0  0  0
    4.5981   -0.3310    0.0000 C   0  0  0  0  0  0  0  0  0  0  0  0
    8.6279   -0.6970    0.0000 C   0  0  0  0  0  0  0  0  0  0  0  0
    7.6279   -0.6970    0.0000 C   0  0  0  0  0  0  0  0  0  0  0  0
    9.1279    0.1690    0.0000 C   0  0  0  0  0  0  0  0  0  0  0  0
    3.7321    1.1690    0.0000 C   0  0  0  0  0  0  0  0  0  0  0  0
    7.6279    1.0350    0.0000 C   0  0  0  0  0  0  0  0  0  0  0  0
    2.8660    0.6690    0.0000 C   0  0  0  0  0  0  0  0  0  0  0  0
    3.7321   -0.8310    0.0000 C   0  0  0  0  0  0  0  0  0  0  0  0
    8.6279    1.0350    0.0000 C   0  0  0  0  0  0  0  0  0  0  0  0
    2.8660   -0.3310    0.0000 C   0  0  0  0  0  0  0  0  0  0  0  0
    9.1279   -1.5631    0.0000 C   0  0  0  0  0  0  0  0  0  0  0  0
   10.1279    0.1690    0.0000 C   0  0  0  0  0  0  0  0  0  0  0  0
    2.0000    1.1690    0.0000 C   0  0  0  0  0  0  0  0  0  0  0  0
    5.7369    1.5631    0.0000 H   0  0  0  0  0  0  0  0  0  0  0  0
    7.3179   -1.2340    0.0000 H   0  0  0  0  0  0  0  0  0  0  0  0
    3.7321    1.7890    0.0000 H   0  0  0  0  0  0  0  0  0  0  0  0
    7.3179    1.5720    0.0000 H   0  0  0  0  0  0  0  0  0  0  0  0
    3.7321   -1.4510    0.0000 H   0  0  0  0  0  0  0  0  0  0  0  0
    8.9379    1.5720    0.0000 H   0  0  0  0  0  0  0  0  0  0  0  0
    2.3291   -0.6410    0.0000 H   0  0  0  0  0  0  0  0  0  0  0  0
    8.5910   -1.8731    0.0000 H   0  0  0  0  0  0  0  0  0  0  0  0
    9.4379   -2.1000    0.0000 H   0  0  0  0  0  0  0  0  0  0  0  0
    9.6648   -1.2531    0.0000 H   0  0  0  0  0  0  0  0  0  0  0  0
   10.1279   -0.4510    0.0000 H   0  0  0  0  0  0  0  0  0  0  0  0
   10.7479    0.1690    0.0000 H   0  0  0  0  0  0  0  0  0  0  0  0
   10.1279    0.7890    0.0000 H   0  0  0  0  0  0  0  0  0  0  0  0
    2.3100    1.7059    0.0000 H   0  0  0  0  0  0  0  0  0  0  0  0
    1.4631    1.4790    0.0000 H   0  0  0  0  0  0  0  0  0  0  0  0
    1.6900    0.6321    0.0000 H   0  0  0  0  0  0  0  0  0  0  0  0
  1  3  1  0  0  0  0
  1  4  1  0  0  0  0
  1 19  1  0  0  0  0
  2  3  2  0  0  0  0
  2  6  1  0  0  0  0
  3  5  1  0  0  0  0
  4  6  2  0  0  0  0
  4 10  1  0  0  0  0
  5  8  2  0  0  0  0
  5 11  1  0  0  0  0
  6 13  1  0  0  0  0
  7  8  1  0  0  0  0
  7  9  2  0  0  0  0
  7 16  1  0  0  0  0
  8 20  1  0  0  0  0
  9 14  1  0  0  0  0
  9 17  1  0  0  0  0
 10 12  2  0  0  0  0
 10 21  1  0  0  0  0
 11 14  2  0  0  0  0
 11 22  1  0  0  0  0
 12 15  1  0  0  0  0
 12 18  1  0  0  0  0
 13 15  2  0  0  0  0
 13 23  1  0  0  0  0
 14 24  1  0  0  0  0
 15 25  1  0  0  0  0
 16 26  1  0  0  0  0
 16 27  1  0  0  0  0
 16 28  1  0  0  0  0
 17 29  1  0  0  0  0
 17 30  1  0  0  0  0
 17 31  1  0  0  0  0
 18 32  1  0  0  0  0
 18 33  1  0  0  0  0
 18 34  1  0  0  0  0
M  END
> <PUBCHEM_COMPOUND_CID>
29260126

> <PUBCHEM_COMPOUND_CANONICALIZED>
1

> <PUBCHEM_CACTVS_COMPLEXITY>
291

> <PUBCHEM_CACTVS_HBOND_ACCEPTOR>
1

> <PUBCHEM_CACTVS_HBOND_DONOR>
1

> <PUBCHEM_CACTVS_ROTATABLE_BOND>
1

> <PUBCHEM_CACTVS_SUBSKEYS>
AAADceB7AAAAAAAAAAAAAAAAAAAAAWAAAAAwYAAAAAAAAFgB9AAAHAAQAAAADAiBHwAz0LbJkACgAyZiZACCgC2hEqAJmSAwdJiIaKLAmZGUIAhokALIyCcQgMAOyAACQAAQACCQAASAACAAQAAAAAAAAA==

> <PUBCHEM_IUPAC_OPENEYE_NAME>
2-(3,4-dimethylphenyl)-6-methyl-1H-benzimidazole

> <PUBCHEM_IUPAC_CAS_NAME>
2-(3,4-dimethylphenyl)-6-methyl-1H-benzimidazole

> <PUBCHEM_IUPAC_NAME>
2-(3,4-dimethylphenyl)-6-methyl-1H-benzimidazole

> <PUBCHEM_IUPAC_SYSTEMATIC_NAME>
2-(3,4-dimethylphenyl)-6-methyl-1H-benzimidazole

> <PUBCHEM_IUPAC_TRADITIONAL_NAME>
2-(3,4-dimethylphenyl)-6-methyl-1H-benzimidazole

> <PUBCHEM_IUPAC_INCHI>
InChI=1S/C16H16N2/c1-10-4-7-14-15(8-10)18-16(17-14)13-6-5-11(2)12(3)9-13/h4-9H,1-3H3,(H,17,18)

> <PUBCHEM_IUPAC_INCHIKEY>
DPSNRIIZATXLER-UHFFFAOYSA-N

> <PUBCHEM_XLOGP3>
4.3

> <PUBCHEM_EXACT_MASS>
236.131349

> <PUBCHEM_MOLECULAR_FORMULA>
C16H16N2

> <PUBCHEM_MOLECULAR_WEIGHT>
236.31164

> <PUBCHEM_OPENEYE_CAN_SMILES>
CC1=CC2=C(C=C1)N=C(N2)C3=CC(=C(C=C3)C)C

> <PUBCHEM_OPENEYE_ISO_SMILES>
CC1=CC2=C(C=C1)N=C(N2)C3=CC(=C(C=C3)C)C

> <PUBCHEM_CACTVS_TPSA>
28.7

> <PUBCHEM_MONOISOTOPIC_WEIGHT>
236.131349

> <PUBCHEM_TOTAL_CHARGE>
0

> <PUBCHEM_HEAVY_ATOM_COUNT>
18

> <PUBCHEM_ATOM_DEF_STEREO_COUNT>
0

> <PUBCHEM_ATOM_UDEF_STEREO_COUNT>
0

> <PUBCHEM_BOND_DEF_STEREO_COUNT>
0

> <PUBCHEM_BOND_UDEF_STEREO_COUNT>
0

> <PUBCHEM_ISOTOPIC_ATOM_COUNT>
0

> <PUBCHEM_COMPONENT_COUNT>
1

> <PUBCHEM_CACTVS_TAUTO_COUNT>
2

> <PUBCHEM_COORDINATE_TYPE>
1
5
255

> <PUBCHEM_BONDANNOTATIONS>
1  3  8
1  4  8
10  12  8
11  14  8
12  15  8
13  15  8
2  3  8
2  6  8
4  10  8
4  6  8
5  11  8
5  8  8
6  13  8
7  8  8
7  9  8
9  14  8

$$$$
29268919
  -OEChem-03221309332D

 26 26  0     0  0  0  0  0  0999 V2000
    2.0000   -2.0000    0.0000 Cl  0  0  0  0  0  0  0  0  0  0  0  0
    3.7320   -3.0000    0.0000 Cl  0  0  0  0  0  0  0  0  0  0  0  0
    3.7320    1.0000    0.0000 N   0  0  0  0  0  0  0  0  0  0  0  0
    4.5981    2.5000    0.0000 C   0  0  0  0  0  0  0  0  0  0  0  0
    4.5981    1.5000    0.0000 C   0  0  0  0  0  0  0  0  0  0  0  0
    5.4641    3.0000    0.0000 C   0  0  0  0  0  0  0  0  0  0  0  0
    3.7320    3.0000    0.0000 C   0  0  0  0  0  0  0  0  0  0  0  0
    3.7320    0.0000    0.0000 C   0  0  0  0  0  0  0  0  0  0  0  0
    2.8660   -0.5000    0.0000 C   0  0  0  0  0  0  0  0  0  0  0  0
    4.5981   -0.5000    0.0000 C   0  0  0  0  0  0  0  0  0  0  0  0
    2.8660   -1.5000    0.0000 C   0  0  0  0  0  0  0  0  0  0  0  0
    4.5981   -1.5000    0.0000 C   0  0  0  0  0  0  0  0  0  0  0  0
    3.7320   -2.0000    0.0000 C   0  0  0  0  0  0  0  0  0  0  0  0
    4.5981    3.1200    0.0000 H   0  0  0  0  0  0  0  0  0  0  0  0
    4.8101    0.9174    0.0000 H   0  0  0  0  0  0  0  0  0  0  0  0
    5.2087    1.6077    0.0000 H   0  0  0  0  0  0  0  0  0  0  0  0
    5.7741    2.4631    0.0000 H   0  0  0  0  0  0  0  0  0  0  0  0
    6.0010    3.3100    0.0000 H   0  0  0  0  0  0  0  0  0  0  0  0
    4.0420    3.5369    0.0000 H   0  0  0  0  0  0  0  0  0  0  0  0
    3.1951    3.3100    0.0000 H   0  0  0  0  0  0  0  0  0  0  0  0
    3.4220    2.4631    0.0000 H   0  0  0  0  0  0  0  0  0  0  0  0
    5.1541    3.5369    0.0000 H   0  0  0  0  0  0  0  0  0  0  0  0
    3.1951    1.3100    0.0000 H   0  0  0  0  0  0  0  0  0  0  0  0
    2.3291   -0.1900    0.0000 H   0  0  0  0  0  0  0  0  0  0  0  0
    5.1350   -0.1900    0.0000 H   0  0  0  0  0  0  0  0  0  0  0  0
    5.1350   -1.8100    0.0000 H   0  0  0  0  0  0  0  0  0  0  0  0
  1 11  1  0  0  0  0
  2 13  1  0  0  0  0
  3  5  1  0  0  0  0
  3  8  1  0  0  0  0
  3 23  1  0  0  0  0
  4  5  1  0  0  0  0
  4  6  1  0  0  0  0
  4  7  1  0  0  0  0
  4 14  1  0  0  0  0
  5 15  1  0  0  0  0
  5 16  1  0  0  0  0
  6 17  1  0  0  0  0
  6 18  1  0  0  0  0
  6 22  1  0  0  0  0
  7 19  1  0  0  0  0
  7 20  1  0  0  0  0
  7 21  1  0  0  0  0
  8  9  2  0  0  0  0
  8 10  1  0  0  0  0
  9 11  1  0  0  0  0
  9 24  1  0  0  0  0
 10 12  2  0  0  0  0
 10 25  1  0  0  0  0
 11 13  2  0  0  0  0
 12 13  1  0  0  0  0
 12 26  1  0  0  0  0
M  END
> <PUBCHEM_COMPOUND_CID>
29268919

> <PUBCHEM_COMPOUND_CANONICALIZED>
1

> <PUBCHEM_CACTVS_COMPLEXITY>
150

> <PUBCHEM_CACTVS_HBOND_ACCEPTOR>
1

> <PUBCHEM_CACTVS_HBOND_DONOR>
1

> <PUBCHEM_CACTVS_ROTATABLE_BOND>
3

> <PUBCHEM_CACTVS_SUBSKEYS>
AAADccByAAAGAAAAAAAAAAAAAAAAAAAAAAAwAAAAAAAAAAABAAAAHAIQAAAADQrBECQywILAAACAACRCQACCAAAhBwAIisAIZogIICLBk5GEIAhgkADIyAcQAAAAAABAAAIAAAQAAIAABAAACAAAAAAAAA==

> <PUBCHEM_IUPAC_OPENEYE_NAME>
3,4-dichloro-N-isobutyl-aniline

> <PUBCHEM_IUPAC_CAS_NAME>
3,4-dichloro-N-(2-methylpropyl)aniline

> <PUBCHEM_IUPAC_NAME>
3,4-dichloro-N-(2-methylpropyl)aniline

> <PUBCHEM_IUPAC_SYSTEMATIC_NAME>
3,4-bis(chloranyl)-N-(2-methylpropyl)aniline

> <PUBCHEM_IUPAC_TRADITIONAL_NAME>
(3,4-dichlorophenyl)-isobutyl-amine

> <PUBCHEM_IUPAC_INCHI>
InChI=1S/C10H13Cl2N/c1-7(2)6-13-8-3-4-9(11)10(12)5-8/h3-5,7,13H,6H2,1-2H3

> <PUBCHEM_IUPAC_INCHIKEY>
XOCCXWPSUUWJRZ-UHFFFAOYSA-N

> <PUBCHEM_XLOGP3>
4.7

> <PUBCHEM_EXACT_MASS>
217.042505

> <PUBCHEM_MOLECULAR_FORMULA>
C10H13Cl2N

> <PUBCHEM_MOLECULAR_WEIGHT>
218.12292

> <PUBCHEM_OPENEYE_CAN_SMILES>
CC(C)CNC1=CC(=C(C=C1)Cl)Cl

> <PUBCHEM_OPENEYE_ISO_SMILES>
CC(C)CNC1=CC(=C(C=C1)Cl)Cl

> <PUBCHEM_CACTVS_TPSA>
12

> <PUBCHEM_MONOISOTOPIC_WEIGHT>
217.042505

> <PUBCHEM_TOTAL_CHARGE>
0

> <PUBCHEM_HEAVY_ATOM_COUNT>
13

> <PUBCHEM_ATOM_DEF_STEREO_COUNT>
0

> <PUBCHEM_ATOM_UDEF_STEREO_COUNT>
0

> <PUBCHEM_BOND_DEF_STEREO_COUNT>
0

> <PUBCHEM_BOND_UDEF_STEREO_COUNT>
0

> <PUBCHEM_ISOTOPIC_ATOM_COUNT>
0

> <PUBCHEM_COMPONENT_COUNT>
1

> <PUBCHEM_CACTVS_TAUTO_COUNT>
1

> <PUBCHEM_COORDINATE_TYPE>
1
5
255

> <PUBCHEM_BONDANNOTATIONS>
10  12  8
11  13  8
12  13  8
8  10  8
8  9  8
9  11  8

$$$$
29269289
  -OEChem-03221309332D

 29 30  0     0  0  0  0  0  0999 V2000
    2.0000   -0.7500    0.0000 Br  0  0  0  0  0  0  0  0  0  0  0  0
    6.3301    3.7500    0.0000 Cl  0  0  0  0  0  0  0  0  0  0  0  0
    3.7320    0.2500    0.0000 O   0  0  0  0  0  0  0  0  0  0  0  0
    4.5981    0.7500    0.0000 C   0  0  0  0  0  0  0  0  0  0  0  0
    4.5981    1.7500    0.0000 C   0  0  0  0  0  0  0  0  0  0  0  0
    3.7320   -0.7500    0.0000 C   0  0  0  0  0  0  0  0  0  0  0  0
    3.7320   -2.7500    0.0000 C   0  0  0  0  0  0  0  0  0  0  0  0
    2.8660   -1.2500    0.0000 C   0  0  0  0  0  0  0  0  0  0  0  0
    4.5981   -1.2500    0.0000 C   0  0  0  0  0  0  0  0  0  0  0  0
    2.8660   -2.2500    0.0000 C   0  0  0  0  0  0  0  0  0  0  0  0
    4.5981   -2.2500    0.0000 C   0  0  0  0  0  0  0  0  0  0  0  0
    5.4641    2.2500    0.0000 C   0  0  0  0  0  0  0  0  0  0  0  0
    3.7320    2.2500    0.0000 C   0  0  0  0  0  0  0  0  0  0  0  0
    3.7320   -3.7500    0.0000 C   0  0  0  0  0  0  0  0  0  0  0  0
    5.4641    3.2500    0.0000 C   0  0  0  0  0  0  0  0  0  0  0  0
    3.7320    3.2500    0.0000 C   0  0  0  0  0  0  0  0  0  0  0  0
    4.5981    3.7500    0.0000 C   0  0  0  0  0  0  0  0  0  0  0  0
    4.8101    0.1674    0.0000 H   0  0  0  0  0  0  0  0  0  0  0  0
    5.2087    0.8577    0.0000 H   0  0  0  0  0  0  0  0  0  0  0  0
    5.1350   -0.9400    0.0000 H   0  0  0  0  0  0  0  0  0  0  0  0
    2.3291   -2.5600    0.0000 H   0  0  0  0  0  0  0  0  0  0  0  0
    5.1350   -2.5600    0.0000 H   0  0  0  0  0  0  0  0  0  0  0  0
    6.0010    1.9400    0.0000 H   0  0  0  0  0  0  0  0  0  0  0  0
    3.1951    1.9400    0.0000 H   0  0  0  0  0  0  0  0  0  0  0  0
    3.1120   -3.7500    0.0000 H   0  0  0  0  0  0  0  0  0  0  0  0
    3.7320   -4.3700    0.0000 H   0  0  0  0  0  0  0  0  0  0  0  0
    4.3520   -3.7500    0.0000 H   0  0  0  0  0  0  0  0  0  0  0  0
    3.1951    3.5600    0.0000 H   0  0  0  0  0  0  0  0  0  0  0  0
    4.5981    4.3700    0.0000 H   0  0  0  0  0  0  0  0  0  0  0  0
  1  8  1  0  0  0  0
  2 15  1  0  0  0  0
  3  4  1  0  0  0  0
  3  6  1  0  0  0  0
  4  5  1  0  0  0  0
  4 18  1  0  0  0  0
  4 19  1  0  0  0  0
  5 12  2  0  0  0  0
  5 13  1  0  0  0  0
  6  8  2  0  0  0  0
  6  9  1  0  0  0  0
  7 10  2  0  0  0  0
  7 11  1  0  0  0  0
  7 14  1  0  0  0  0
  8 10  1  0  0  0  0
  9 11  2  0  0  0  0
  9 20  1  0  0  0  0
 10 21  1  0  0  0  0
 11 22  1  0  0  0  0
 12 15  1  0  0  0  0
 12 23  1  0  0  0  0
 13 16  2  0  0  0  0
 13 24  1  0  0  0  0
 14 25  1  0  0  0  0
 14 26  1  0  0  0  0
 14 27  1  0  0  0  0
 15 17  2  0  0  0  0
 16 17  1  0  0  0  0
 16 28  1  0  0  0  0
 17 29  1  0  0  0  0
M  END
> <PUBCHEM_COMPOUND_CID>
29269289

> <PUBCHEM_COMPOUND_CANONICALIZED>
1

> <PUBCHEM_CACTVS_COMPLEXITY>
236

> <PUBCHEM_CACTVS_HBOND_ACCEPTOR>
1

> <PUBCHEM_CACTVS_HBOND_DONOR>
0

> <PUBCHEM_CACTVS_ROTATABLE_BOND>
3

> <PUBCHEM_CACTVS_SUBSKEYS>
AAADccBwIAAEEAAAAAAAAAAAAAAAAAAAAAAwYAAAAAAAAAABQAAAGgJAAAABrAagmCIyBoAABACAAiBCAAACCAAgJQQIiAAGCqgMJiKFMxqCOCCkwBEIqheAwCAOIAAAMAAABABAAABgAAAIAAAAAAAAAA==

> <PUBCHEM_IUPAC_OPENEYE_NAME>
2-bromo-1-[(3-chlorophenyl)methoxy]-4-methyl-benzene

> <PUBCHEM_IUPAC_CAS_NAME>
2-bromo-1-[(3-chlorophenyl)methoxy]-4-methylbenzene

> <PUBCHEM_IUPAC_NAME>
2-bromo-1-[(3-chlorophenyl)methoxy]-4-methylbenzene

> <PUBCHEM_IUPAC_SYSTEMATIC_NAME>
2-bromanyl-1-[(3-chlorophenyl)methoxy]-4-methyl-benzene

> <PUBCHEM_IUPAC_TRADITIONAL_NAME>
2-bromo-1-(3-chlorobenzyl)oxy-4-methyl-benzene

> <PUBCHEM_IUPAC_INCHI>
InChI=1S/C14H12BrClO/c1-10-5-6-14(13(15)7-10)17-9-11-3-2-4-12(16)8-11/h2-8H,9H2,1H3

> <PUBCHEM_IUPAC_INCHIKEY>
NXEJHTZVBNCRFM-UHFFFAOYSA-N

> <PUBCHEM_XLOGP3>
5

> <PUBCHEM_EXACT_MASS>
309.976005

> <PUBCHEM_MOLECULAR_FORMULA>
C14H12BrClO

> <PUBCHEM_MOLECULAR_WEIGHT>
311.60148

> <PUBCHEM_OPENEYE_CAN_SMILES>
CC1=CC(=C(C=C1)OCC2=CC(=CC=C2)Cl)Br

> <PUBCHEM_OPENEYE_ISO_SMILES>
CC1=CC(=C(C=C1)OCC2=CC(=CC=C2)Cl)Br

> <PUBCHEM_CACTVS_TPSA>
9.2

> <PUBCHEM_MONOISOTOPIC_WEIGHT>
309.976005

> <PUBCHEM_TOTAL_CHARGE>
0

> <PUBCHEM_HEAVY_ATOM_COUNT>
17

> <PUBCHEM_ATOM_DEF_STEREO_COUNT>
0

> <PUBCHEM_ATOM_UDEF_STEREO_COUNT>
0

> <PUBCHEM_BOND_DEF_STEREO_COUNT>
0

> <PUBCHEM_BOND_UDEF_STEREO_COUNT>
0

> <PUBCHEM_ISOTOPIC_ATOM_COUNT>
0

> <PUBCHEM_COMPONENT_COUNT>
1

> <PUBCHEM_CACTVS_TAUTO_COUNT>
1

> <PUBCHEM_COORDINATE_TYPE>
1
5
255

> <PUBCHEM_BONDANNOTATIONS>
12  15  8
13  16  8
15  17  8
16  17  8
5  12  8
5  13  8
6  8  8
6  9  8
7  10  8
7  11  8
8  10  8
9  11  8

$$$$
29270467
  -OEChem-03221309332D

 29 30  0     0  0  0  0  0  0999 V2000
    7.1962    3.2500    0.0000 Br  0  0  0  0  0  0  0  0  0  0  0  0
    2.0000   -1.7500    0.0000 Cl  0  0  0  0  0  0  0  0  0  0  0  0
    4.5981   -0.2500    0.0000 O   0  0  0  0  0  0  0  0  0  0  0  0
    5.4641    0.2500    0.0000 C   0  0  0  0  0  0  0  0  0  0  0  0
    4.5981   -1.2500    0.0000 C   0  0  0  0  0  0  0  0  0  0  0  0
    5.4641    1.2500    0.0000 C   0  0  0  0  0  0  0  0  0  0  0  0
    3.7320   -1.7500    0.0000 C   0  0  0  0  0  0  0  0  0  0  0  0
    5.4641   -1.7500    0.0000 C   0  0  0  0  0  0  0  0  0  0  0  0
    3.7320   -2.7500    0.0000 C   0  0  0  0  0  0  0  0  0  0  0  0
    6.3301    1.7500    0.0000 C   0  0  0  0  0  0  0  0  0  0  0  0
    4.5981    1.7500    0.0000 C   0  0  0  0  0  0  0  0  0  0  0  0
    2.8660   -1.2500    0.0000 C   0  0  0  0  0  0  0  0  0  0  0  0
    5.4641   -2.7500    0.0000 C   0  0  0  0  0  0  0  0  0  0  0  0
    4.5981   -3.2500    0.0000 C   0  0  0  0  0  0  0  0  0  0  0  0
    6.3301    2.7500    0.0000 C   0  0  0  0  0  0  0  0  0  0  0  0
    4.5981    2.7500    0.0000 C   0  0  0  0  0  0  0  0  0  0  0  0
    5.4641    3.2500    0.0000 C   0  0  0  0  0  0  0  0  0  0  0  0
    5.6762   -0.3326    0.0000 H   0  0  0  0  0  0  0  0  0  0  0  0
    6.0747    0.3577    0.0000 H   0  0  0  0  0  0  0  0  0  0  0  0
    6.0010   -1.4400    0.0000 H   0  0  0  0  0  0  0  0  0  0  0  0
    3.1951   -3.0600    0.0000 H   0  0  0  0  0  0  0  0  0  0  0  0
    6.8671    1.4400    0.0000 H   0  0  0  0  0  0  0  0  0  0  0  0
    4.0611    1.4400    0.0000 H   0  0  0  0  0  0  0  0  0  0  0  0
    3.2646   -0.7751    0.0000 H   0  0  0  0  0  0  0  0  0  0  0  0
    2.4675   -0.7751    0.0000 H   0  0  0  0  0  0  0  0  0  0  0  0
    6.0010   -3.0600    0.0000 H   0  0  0  0  0  0  0  0  0  0  0  0
    4.5981   -3.8700    0.0000 H   0  0  0  0  0  0  0  0  0  0  0  0
    4.0611    3.0600    0.0000 H   0  0  0  0  0  0  0  0  0  0  0  0
    5.4641    3.8700    0.0000 H   0  0  0  0  0  0  0  0  0  0  0  0
  1 15  1  0  0  0  0
  2 12  1  0  0  0  0
  3  4  1  0  0  0  0
  3  5  1  0  0  0  0
  4  6  1  0  0  0  0
  4 18  1  0  0  0  0
  4 19  1  0  0  0  0
  5  7  1  0  0  0  0
  5  8  2  0  0  0  0
  6 10  2  0  0  0  0
  6 11  1  0  0  0  0
  7  9  2  0  0  0  0
  7 12  1  0  0  0  0
  8 13  1  0  0  0  0
  8 20  1  0  0  0  0
  9 14  1  0  0  0  0
  9 21  1  0  0  0  0
 10 15  1  0  0  0  0
 10 22  1  0  0  0  0
 11 16  2  0  0  0  0
 11 23  1  0  0  0  0
 12 24  1  0  0  0  0
 12 25  1  0  0  0  0
 13 14  2  0  0  0  0
 13 26  1  0  0  0  0
 14 27  1  0  0  0  0
 15 17  2  0  0  0  0
 16 17  1  0  0  0  0
 16 28  1  0  0  0  0
 17 29  1  0  0  0  0
M  END
> <PUBCHEM_COMPOUND_CID>
29270467

> <PUBCHEM_COMPOUND_CANONICALIZED>
1

> <PUBCHEM_CACTVS_COMPLEXITY>
224

> <PUBCHEM_CACTVS_HBOND_ACCEPTOR>
1

> <PUBCHEM_CACTVS_HBOND_DONOR>
0

> <PUBCHEM_CACTVS_ROTATABLE_BOND>
4

> <PUBCHEM_CACTVS_SUBSKEYS>
AAADccBwIAAEEAAAAAAAAAAAAAAAAAAAAAAwYAAAAAAAAAABQAAAGgJAAAABrAegmEIwBoAABACAAiBCAAACCAAgIAQIiAAGCqgMJiKFMRqCOCCkwBEIqheAwCAOAAAAEAAIAAAAAAAgABAAAAAAAAAAAA==

> <PUBCHEM_IUPAC_OPENEYE_NAME>
1-bromo-3-[[2-(chloromethyl)phenoxy]methyl]benzene

> <PUBCHEM_IUPAC_CAS_NAME>
1-bromo-3-[[2-(chloromethyl)phenoxy]methyl]benzene

> <PUBCHEM_IUPAC_NAME>
1-bromo-3-[[2-(chloromethyl)phenoxy]methyl]benzene

> <PUBCHEM_IUPAC_SYSTEMATIC_NAME>
1-bromanyl-3-[[2-(chloromethyl)phenoxy]methyl]benzene

> <PUBCHEM_IUPAC_TRADITIONAL_NAME>
1-bromo-3-[[2-(chloromethyl)phenoxy]methyl]benzene

> <PUBCHEM_IUPAC_INCHI>
InChI=1S/C14H12BrClO/c15-13-6-3-4-11(8-13)10-17-14-7-2-1-5-12(14)9-16/h1-8H,9-10H2

> <PUBCHEM_IUPAC_INCHIKEY>
FWTDJPZVRBAVRD-UHFFFAOYSA-N

> <PUBCHEM_XLOGP3>
3.6

> <PUBCHEM_EXACT_MASS>
309.976005

> <PUBCHEM_MOLECULAR_FORMULA>
C14H12BrClO

> <PUBCHEM_MOLECULAR_WEIGHT>
311.60148

> <PUBCHEM_OPENEYE_CAN_SMILES>
C1=CC=C(C(=C1)CCl)OCC2=CC(=CC=C2)Br

> <PUBCHEM_OPENEYE_ISO_SMILES>
C1=CC=C(C(=C1)CCl)OCC2=CC(=CC=C2)Br

> <PUBCHEM_CACTVS_TPSA>
9.2

> <PUBCHEM_MONOISOTOPIC_WEIGHT>
309.976005

> <PUBCHEM_TOTAL_CHARGE>
0

> <PUBCHEM_HEAVY_ATOM_COUNT>
17

> <PUBCHEM_ATOM_DEF_STEREO_COUNT>
0

> <PUBCHEM_ATOM_UDEF_STEREO_COUNT>
0

> <PUBCHEM_BOND_DEF_STEREO_COUNT>
0

> <PUBCHEM_BOND_UDEF_STEREO_COUNT>
0

> <PUBCHEM_ISOTOPIC_ATOM_COUNT>
0

> <PUBCHEM_COMPONENT_COUNT>
1

> <PUBCHEM_CACTVS_TAUTO_COUNT>
1

> <PUBCHEM_COORDINATE_TYPE>
1
5
255

> <PUBCHEM_BONDANNOTATIONS>
10  15  8
11  16  8
13  14  8
15  17  8
16  17  8
5  7  8
5  8  8
6  10  8
6  11  8
7  9  8
8  13  8
9  14  8

$$$$
29273996
  -OEChem-03221309332D

 36 37  0     0  0  0  0  0  0999 V2000
    5.4641   -0.4470    0.0000 N   0  0  0  0  0  0  0  0  0  0  0  0
    9.0084    1.3577    0.0000 N   0  0  0  0  0  0  0  0  0  0  0  0
    3.7320   -0.4470    0.0000 C   0  0  0  0  0  0  0  0  0  0  0  0
    4.5981    0.0530    0.0000 C   0  0  0  0  0  0  0  0  0  0  0  0
    2.8660    0.0530    0.0000 C   0  0  0  0  0  0  0  0  0  0  0  0
    3.7320   -1.4470    0.0000 C   0  0  0  0  0  0  0  0  0  0  0  0
    2.0000   -0.4470    0.0000 C   0  0  0  0  0  0  0  0  0  0  0  0
    2.8660   -1.9470    0.0000 C   0  0  0  0  0  0  0  0  0  0  0  0
    6.3301    0.0530    0.0000 C   0  0  0  0  0  0  0  0  0  0  0  0
    8.0622    0.0530    0.0000 C   0  0  0  0  0  0  0  0  0  0  0  0
    7.1962   -0.4470    0.0000 C   0  0  0  0  0  0  0  0  0  0  0  0
    8.0622    1.0530    0.0000 C   0  0  0  0  0  0  0  0  0  0  0  0
    6.3301    1.0530    0.0000 C   0  0  0  0  0  0  0  0  0  0  0  0
    7.1962    1.5530    0.0000 C   0  0  0  0  0  0  0  0  0  0  0  0
    9.0084   -0.2518    0.0000 C   0  0  0  0  0  0  0  0  0  0  0  0
    9.5920    0.5530    0.0000 C   0  0  0  0  0  0  0  0  0  0  0  0
    3.7320    0.1730    0.0000 H   0  0  0  0  0  0  0  0  0  0  0  0
    4.9966    0.5279    0.0000 H   0  0  0  0  0  0  0  0  0  0  0  0
    4.1996    0.5279    0.0000 H   0  0  0  0  0  0  0  0  0  0  0  0
    3.2646    0.5279    0.0000 H   0  0  0  0  0  0  0  0  0  0  0  0
    2.4675    0.5279    0.0000 H   0  0  0  0  0  0  0  0  0  0  0  0
    3.9441   -2.0296    0.0000 H   0  0  0  0  0  0  0  0  0  0  0  0
    4.3426   -1.3394    0.0000 H   0  0  0  0  0  0  0  0  0  0  0  0
    5.4641   -1.0670    0.0000 H   0  0  0  0  0  0  0  0  0  0  0  0
    2.5560   -1.4101    0.0000 H   0  0  0  0  0  0  0  0  0  0  0  0
    1.6900    0.0899    0.0000 H   0  0  0  0  0  0  0  0  0  0  0  0
    1.4631   -0.7570    0.0000 H   0  0  0  0  0  0  0  0  0  0  0  0
    2.3100   -0.9840    0.0000 H   0  0  0  0  0  0  0  0  0  0  0  0
    2.3291   -2.2570    0.0000 H   0  0  0  0  0  0  0  0  0  0  0  0
    3.1760   -2.4840    0.0000 H   0  0  0  0  0  0  0  0  0  0  0  0
    7.1962   -1.0670    0.0000 H   0  0  0  0  0  0  0  0  0  0  0  0
    5.7932    1.3630    0.0000 H   0  0  0  0  0  0  0  0  0  0  0  0
    7.1962    2.1730    0.0000 H   0  0  0  0  0  0  0  0  0  0  0  0
    9.2010   -0.8411    0.0000 H   0  0  0  0  0  0  0  0  0  0  0  0
    9.2010    1.9470    0.0000 H   0  0  0  0  0  0  0  0  0  0  0  0
   10.2120    0.5530    0.0000 H   0  0  0  0  0  0  0  0  0  0  0  0
  1  4  1  0  0  0  0
  1  9  1  0  0  0  0
  1 24  1  0  0  0  0
  2 12  1  0  0  0  0
  2 16  1  0  0  0  0
  2 35  1  0  0  0  0
  3  4  1  0  0  0  0
  3  5  1  0  0  0  0
  3  6  1  0  0  0  0
  3 17  1  0  0  0  0
  4 18  1  0  0  0  0
  4 19  1  0  0  0  0
  5  7  1  0  0  0  0
  5 20  1  0  0  0  0
  5 21  1  0  0  0  0
  6  8  1  0  0  0  0
  6 22  1  0  0  0  0
  6 23  1  0  0  0  0
  7 26  1  0  0  0  0
  7 27  1  0  0  0  0
  7 28  1  0  0  0  0
  8 25  1  0  0  0  0
  8 29  1  0  0  0  0
  8 30  1  0  0  0  0
  9 11  2  0  0  0  0
  9 13  1  0  0  0  0
 10 11  1  0  0  0  0
 10 12  2  0  0  0  0
 10 15  1  0  0  0  0
 11 31  1  0  0  0  0
 12 14  1  0  0  0  0
 13 14  2  0  0  0  0
 13 32  1  0  0  0  0
 14 33  1  0  0  0  0
 15 16  2  0  0  0  0
 15 34  1  0  0  0  0
 16 36  1  0  0  0  0
M  END
> <PUBCHEM_COMPOUND_CID>
29273996

> <PUBCHEM_COMPOUND_CANONICALIZED>
1

> <PUBCHEM_CACTVS_COMPLEXITY>
201

> <PUBCHEM_CACTVS_HBOND_ACCEPTOR>
1

> <PUBCHEM_CACTVS_HBOND_DONOR>
2

> <PUBCHEM_CACTVS_ROTATABLE_BOND>
5

> <PUBCHEM_CACTVS_SUBSKEYS>
AAADceBzAAAAAAAAAAAAAAAAAAAAAWAAAAAwAAAAAAAAAFgB8AAAHAAQAAAADQjBHgQ+wPLJkACgAzRnRACCgCAxAiAI2aA4ZJgIIOLAkZGEIAhgkADIyAcQgIAOAACAQAACAAAAAQCAAAQAAAAAAAAAAA==

> <PUBCHEM_IUPAC_OPENEYE_NAME>
N-(2-ethylbutyl)-1H-indol-5-amine

> <PUBCHEM_IUPAC_CAS_NAME>
N-(2-ethylbutyl)-1H-indol-5-amine

> <PUBCHEM_IUPAC_NAME>
N-(2-ethylbutyl)-1H-indol-5-amine

> <PUBCHEM_IUPAC_SYSTEMATIC_NAME>
N-(2-ethylbutyl)-1H-indol-5-amine

> <PUBCHEM_IUPAC_TRADITIONAL_NAME>
2-ethylbutyl(1H-indol-5-yl)amine

> <PUBCHEM_IUPAC_INCHI>
InChI=1S/C14H20N2/c1-3-11(4-2)10-16-13-5-6-14-12(9-13)7-8-15-14/h5-9,11,15-16H,3-4,10H2,1-2H3

> <PUBCHEM_IUPAC_INCHIKEY>
LXDRAAKAJGMGRO-UHFFFAOYSA-N

> <PUBCHEM_XLOGP3>
4.3

> <PUBCHEM_EXACT_MASS>
216.162649

> <PUBCHEM_MOLECULAR_FORMULA>
C14H20N2

> <PUBCHEM_MOLECULAR_WEIGHT>
216.322

> <PUBCHEM_OPENEYE_CAN_SMILES>
CCC(CC)CNC1=CC2=C(C=C1)NC=C2

> <PUBCHEM_OPENEYE_ISO_SMILES>
CCC(CC)CNC1=CC2=C(C=C1)NC=C2

> <PUBCHEM_CACTVS_TPSA>
27.8

> <PUBCHEM_MONOISOTOPIC_WEIGHT>
216.162649

> <PUBCHEM_TOTAL_CHARGE>
0

> <PUBCHEM_HEAVY_ATOM_COUNT>
16

> <PUBCHEM_ATOM_DEF_STEREO_COUNT>
0

> <PUBCHEM_ATOM_UDEF_STEREO_COUNT>
0

> <PUBCHEM_BOND_DEF_STEREO_COUNT>
0

> <PUBCHEM_BOND_UDEF_STEREO_COUNT>
0

> <PUBCHEM_ISOTOPIC_ATOM_COUNT>
0

> <PUBCHEM_COMPONENT_COUNT>
1

> <PUBCHEM_CACTVS_TAUTO_COUNT>
1

> <PUBCHEM_COORDINATE_TYPE>
1
5
255

> <PUBCHEM_BONDANNOTATIONS>
10  11  8
10  12  8
10  15  8
12  14  8
13  14  8
15  16  8
2  12  8
2  16  8
9  11  8
9  13  8

$$$$
29274703
  -OEChem-03221309332D

 26 27  0     0  0  0  0  0  0999 V2000
    4.5981    3.7500    0.0000 Br  0  0  0  0  0  0  0  0  0  0  0  0
    2.0000   -3.7500    0.0000 Cl  0  0  0  0  0  0  0  0  0  0  0  0
    4.5981   -0.2500    0.0000 O   0  0  0  0  0  0  0  0  0  0  0  0
    3.7320   -1.7500    0.0000 C   0  0  0  0  0  0  0  0  0  0  0  0
    3.7320   -0.7500    0.0000 C   0  0  0  0  0  0  0  0  0  0  0  0
    4.5981    0.7500    0.0000 C   0  0  0  0  0  0  0  0  0  0  0  0
    2.8660   -2.2500    0.0000 C   0  0  0  0  0  0  0  0  0  0  0  0
    4.5981   -2.2500    0.0000 C   0  0  0  0  0  0  0  0  0  0  0  0
    2.8660   -3.2500    0.0000 C   0  0  0  0  0  0  0  0  0  0  0  0
    4.5981   -3.2500    0.0000 C   0  0  0  0  0  0  0  0  0  0  0  0
    5.4641    1.2500    0.0000 C   0  0  0  0  0  0  0  0  0  0  0  0
    3.7320    1.2500    0.0000 C   0  0  0  0  0  0  0  0  0  0  0  0
    3.7320   -3.7500    0.0000 C   0  0  0  0  0  0  0  0  0  0  0  0
    5.4641    2.2500    0.0000 C   0  0  0  0  0  0  0  0  0  0  0  0
    3.7320    2.2500    0.0000 C   0  0  0  0  0  0  0  0  0  0  0  0
    4.5981    2.7500    0.0000 C   0  0  0  0  0  0  0  0  0  0  0  0
    3.5200   -0.1674    0.0000 H   0  0  0  0  0  0  0  0  0  0  0  0
    3.1215   -0.8577    0.0000 H   0  0  0  0  0  0  0  0  0  0  0  0
    2.3291   -1.9400    0.0000 H   0  0  0  0  0  0  0  0  0  0  0  0
    5.1350   -1.9400    0.0000 H   0  0  0  0  0  0  0  0  0  0  0  0
    5.1350   -3.5600    0.0000 H   0  0  0  0  0  0  0  0  0  0  0  0
    6.0010    0.9400    0.0000 H   0  0  0  0  0  0  0  0  0  0  0  0
    3.1951    0.9400    0.0000 H   0  0  0  0  0  0  0  0  0  0  0  0
    3.7320   -4.3700    0.0000 H   0  0  0  0  0  0  0  0  0  0  0  0
    6.0010    2.5600    0.0000 H   0  0  0  0  0  0  0  0  0  0  0  0
    3.1951    2.5600    0.0000 H   0  0  0  0  0  0  0  0  0  0  0  0
  1 16  1  0  0  0  0
  2  9  1  0  0  0  0
  3  5  1  0  0  0  0
  3  6  1  0  0  0  0
  4  5  1  0  0  0  0
  4  7  2  0  0  0  0
  4  8  1  0  0  0  0
  5 17  1  0  0  0  0
  5 18  1  0  0  0  0
  6 11  2  0  0  0  0
  6 12  1  0  0  0  0
  7  9  1  0  0  0  0
  7 19  1  0  0  0  0
  8 10  2  0  0  0  0
  8 20  1  0  0  0  0
  9 13  2  0  0  0  0
 10 13  1  0  0  0  0
 10 21  1  0  0  0  0
 11 14  1  0  0  0  0
 11 22  1  0  0  0  0
 12 15  2  0  0  0  0
 12 23  1  0  0  0  0
 13 24  1  0  0  0  0
 14 16  2  0  0  0  0
 14 25  1  0  0  0  0
 15 16  1  0  0  0  0
 15 26  1  0  0  0  0
M  END
> <PUBCHEM_COMPOUND_CID>
29274703

> <PUBCHEM_COMPOUND_CANONICALIZED>
1

> <PUBCHEM_CACTVS_COMPLEXITY>
204

> <PUBCHEM_CACTVS_HBOND_ACCEPTOR>
1

> <PUBCHEM_CACTVS_HBOND_DONOR>
0

> <PUBCHEM_CACTVS_ROTATABLE_BOND>
3

> <PUBCHEM_CACTVS_SUBSKEYS>
AAADccBwIAAEEAAAAAAAAAAAAAAAAAAAAAAwYAAAAAAAAAABQAAAGgJAAAABrAagmCIwBoAABACAAiBCAAACCAAgJQQIiAAGCqgMJiKFMxqCOCCkwBEIqheAwCAOABAAIAAAAAAAIABAAAAAAAAAAAAAAA==

> <PUBCHEM_IUPAC_OPENEYE_NAME>
1-bromo-4-[(3-chlorophenyl)methoxy]benzene

> <PUBCHEM_IUPAC_CAS_NAME>
1-bromo-4-[(3-chlorophenyl)methoxy]benzene

> <PUBCHEM_IUPAC_NAME>
1-bromo-4-[(3-chlorophenyl)methoxy]benzene

> <PUBCHEM_IUPAC_SYSTEMATIC_NAME>
1-bromanyl-4-[(3-chlorophenyl)methoxy]benzene

> <PUBCHEM_IUPAC_TRADITIONAL_NAME>
1-bromo-4-(3-chlorobenzyl)oxy-benzene

> <PUBCHEM_IUPAC_INCHI>
InChI=1S/C13H10BrClO/c14-11-4-6-13(7-5-11)16-9-10-2-1-3-12(15)8-10/h1-8H,9H2

> <PUBCHEM_IUPAC_INCHIKEY>
CDCAAPDUEZNNCV-UHFFFAOYSA-N

> <PUBCHEM_XLOGP3>
5

> <PUBCHEM_EXACT_MASS>
295.960355

> <PUBCHEM_MOLECULAR_FORMULA>
C13H10BrClO

> <PUBCHEM_MOLECULAR_WEIGHT>
297.5749

> <PUBCHEM_OPENEYE_CAN_SMILES>
C1=CC(=CC(=C1)Cl)COC2=CC=C(C=C2)Br

> <PUBCHEM_OPENEYE_ISO_SMILES>
C1=CC(=CC(=C1)Cl)COC2=CC=C(C=C2)Br

> <PUBCHEM_CACTVS_TPSA>
9.2

> <PUBCHEM_MONOISOTOPIC_WEIGHT>
295.960355

> <PUBCHEM_TOTAL_CHARGE>
0

> <PUBCHEM_HEAVY_ATOM_COUNT>
16

> <PUBCHEM_ATOM_DEF_STEREO_COUNT>
0

> <PUBCHEM_ATOM_UDEF_STEREO_COUNT>
0

> <PUBCHEM_BOND_DEF_STEREO_COUNT>
0

> <PUBCHEM_BOND_UDEF_STEREO_COUNT>
0

> <PUBCHEM_ISOTOPIC_ATOM_COUNT>
0

> <PUBCHEM_COMPONENT_COUNT>
1

> <PUBCHEM_CACTVS_TAUTO_COUNT>
1

> <PUBCHEM_COORDINATE_TYPE>
1
5
255

> <PUBCHEM_BONDANNOTATIONS>
10  13  8
11  14  8
12  15  8
14  16  8
15  16  8
4  7  8
4  8  8
6  11  8
6  12  8
7  9  8
8  10  8
9  13  8

$$$$
