16000514
  -OEChem-11301217182D

 51 53  0     0  0  0  0  0  0999 V2000
    4.5981   -1.0000    0.0000 S   0  0  0  0  0  0  0  0  0  0  0  0
    8.0622    2.0000    0.0000 S   0  0  0  0  0  0  0  0  0  0  0  0
    5.5981   -1.0000    0.0000 O   0  0  0  0  0  0  0  0  0  0  0  0
    3.5981   -1.0000    0.0000 O   0  0  0  0  0  0  0  0  0  0  0  0
    2.8660   -4.0000    0.0000 O   0  0  0  0  0  0  0  0  0  0  0  0
    4.5981   -5.0000    0.0000 O   0  0  0  0  0  0  0  0  0  0  0  0
    7.5622    2.8660    0.0000 O   0  0  0  0  0  0  0  0  0  0  0  0
    8.5622    1.1340    0.0000 O   0  0  0  0  0  0  0  0  0  0  0  0
    4.5981    0.0000    0.0000 N   0  0  0  0  0  0  0  0  0  0  0  0
    8.9282    2.5000    0.0000 N   0  0  0  0  0  0  0  0  0  0  0  0
    8.0622    4.0000    0.0000 N   0  0  0  0  0  0  0  0  0  0  0  0
    9.7942    4.0000    0.0000 N   0  0  0  0  0  0  0  0  0  0  0  0
    5.4641    0.5000    0.0000 C   0  0  0  0  0  0  0  0  0  0  0  0
    4.5981   -2.0000    0.0000 C   0  0  0  0  0  0  0  0  0  0  0  0
    7.1962    1.5000    0.0000 C   0  0  0  0  0  0  0  0  0  0  0  0
    6.3301    0.0000    0.0000 C   0  0  0  0  0  0  0  0  0  0  0  0
    5.4641    1.5000    0.0000 C   0  0  0  0  0  0  0  0  0  0  0  0
    7.1962    0.5000    0.0000 C   0  0  0  0  0  0  0  0  0  0  0  0
    6.3301    2.0000    0.0000 C   0  0  0  0  0  0  0  0  0  0  0  0
    3.7320   -2.5000    0.0000 C   0  0  0  0  0  0  0  0  0  0  0  0
    5.4641   -2.5000    0.0000 C   0  0  0  0  0  0  0  0  0  0  0  0
    3.7320   -3.5000    0.0000 C   0  0  0  0  0  0  0  0  0  0  0  0
    4.5981   -4.0000    0.0000 C   0  0  0  0  0  0  0  0  0  0  0  0
    5.4641   -3.5000    0.0000 C   0  0  0  0  0  0  0  0  0  0  0  0
    8.9282    3.5000    0.0000 C   0  0  0  0  0  0  0  0  0  0  0  0
    8.0622    5.0000    0.0000 C   0  0  0  0  0  0  0  0  0  0  0  0
    2.0000   -3.5000    0.0000 C   0  0  0  0  0  0  0  0  0  0  0  0
    8.9282    5.5000    0.0000 C   0  0  0  0  0  0  0  0  0  0  0  0
    5.4641   -5.5000    0.0000 C   0  0  0  0  0  0  0  0  0  0  0  0
    9.7942    5.0000    0.0000 C   0  0  0  0  0  0  0  0  0  0  0  0
    7.1962    5.5000    0.0000 C   0  0  0  0  0  0  0  0  0  0  0  0
    4.0611    0.3100    0.0000 H   0  0  0  0  0  0  0  0  0  0  0  0
    6.3301   -0.6200    0.0000 H   0  0  0  0  0  0  0  0  0  0  0  0
    4.9272    1.8100    0.0000 H   0  0  0  0  0  0  0  0  0  0  0  0
    7.7331    0.1900    0.0000 H   0  0  0  0  0  0  0  0  0  0  0  0
    6.3301    2.6200    0.0000 H   0  0  0  0  0  0  0  0  0  0  0  0
    3.1951   -2.1900    0.0000 H   0  0  0  0  0  0  0  0  0  0  0  0
    6.0010   -2.1900    0.0000 H   0  0  0  0  0  0  0  0  0  0  0  0
    6.0010   -3.8100    0.0000 H   0  0  0  0  0  0  0  0  0  0  0  0
    9.4651    2.1900    0.0000 H   0  0  0  0  0  0  0  0  0  0  0  0
    2.3100   -2.9631    0.0000 H   0  0  0  0  0  0  0  0  0  0  0  0
    1.4631   -3.1900    0.0000 H   0  0  0  0  0  0  0  0  0  0  0  0
    1.6900   -4.0369    0.0000 H   0  0  0  0  0  0  0  0  0  0  0  0
    8.9282    6.1200    0.0000 H   0  0  0  0  0  0  0  0  0  0  0  0
    5.1541   -6.0369    0.0000 H   0  0  0  0  0  0  0  0  0  0  0  0
    6.0010   -5.8100    0.0000 H   0  0  0  0  0  0  0  0  0  0  0  0
    5.7741   -4.9631    0.0000 H   0  0  0  0  0  0  0  0  0  0  0  0
   10.3312    5.3100    0.0000 H   0  0  0  0  0  0  0  0  0  0  0  0
    7.5062    6.0369    0.0000 H   0  0  0  0  0  0  0  0  0  0  0  0
    6.6592    5.8100    0.0000 H   0  0  0  0  0  0  0  0  0  0  0  0
    6.8862    4.9631    0.0000 H   0  0  0  0  0  0  0  0  0  0  0  0
  1  3  2  0  0  0  0
  1  4  2  0  0  0  0
  1  9  1  0  0  0  0
  1 14  1  0  0  0  0
  2  7  2  0  0  0  0
  2  8  2  0  0  0  0
  2 10  1  0  0  0  0
  2 15  1  0  0  0  0
  5 22  1  0  0  0  0
  5 27  1  0  0  0  0
  6 23  1  0  0  0  0
  6 29  1  0  0  0  0
  9 13  1  0  0  0  0
  9 32  1  0  0  0  0
 10 25  1  0  0  0  0
 10 40  1  0  0  0  0
 11 25  1  0  0  0  0
 11 26  2  0  0  0  0
 12 25  2  0  0  0  0
 12 30  1  0  0  0  0
 13 16  2  0  0  0  0
 13 17  1  0  0  0  0
 14 20  2  0  0  0  0
 14 21  1  0  0  0  0
 15 18  2  0  0  0  0
 15 19  1  0  0  0  0
 16 18  1  0  0  0  0
 16 33  1  0  0  0  0
 17 19  2  0  0  0  0
 17 34  1  0  0  0  0
 18 35  1  0  0  0  0
 19 36  1  0  0  0  0
 20 22  1  0  0  0  0
 20 37  1  0  0  0  0
 21 24  2  0  0  0  0
 21 38  1  0  0  0  0
 22 23  2  0  0  0  0
 23 24  1  0  0  0  0
 24 39  1  0  0  0  0
 26 28  1  0  0  0  0
 26 31  1  0  0  0  0
 27 41  1  0  0  0  0
 27 42  1  0  0  0  0
 27 43  1  0  0  0  0
 28 30  2  0  0  0  0
 28 44  1  0  0  0  0
 29 45  1  0  0  0  0
 29 46  1  0  0  0  0
 29 47  1  0  0  0  0
 30 48  1  0  0  0  0
 31 49  1  0  0  0  0
 31 50  1  0  0  0  0
 31 51  1  0  0  0  0
M  END
> <PUBCHEM_COMPOUND_CID>
16000514

> <PUBCHEM_COMPOUND_CANONICALIZED>
1

> <PUBCHEM_CACTVS_COMPLEXITY>
774

> <PUBCHEM_CACTVS_HBOND_ACCEPTOR>
10

> <PUBCHEM_CACTVS_HBOND_DONOR>
2

> <PUBCHEM_CACTVS_ROTATABLE_BOND>
8

> <PUBCHEM_CACTVS_SUBSKEYS>
AAADceB7uABgAAAAAAAAAAAAAAAAAAAAAAA8YIAAAAAAAAAB0AAAHgQQQAAACAzB1gY/15ZIFAKgATRnZHDCiDkxIqAJ2Dg+7JiNLqLE+duENCps0BNK6CeQQAAAAIQABAAAQAABCAAIAACAAAAAAAAAAA==

> <PUBCHEM_IUPAC_OPENEYE_NAME>
3,4-dimethoxy-N-[4-[(4-methylpyrimidin-2-yl)sulfamoyl]phenyl]benzenesulfonamide

> <PUBCHEM_IUPAC_CAS_NAME>
3,4-dimethoxy-N-[4-[(4-methyl-2-pyrimidinyl)sulfamoyl]phenyl]benzenesulfonamide

> <PUBCHEM_IUPAC_NAME>
3,4-dimethoxy-N-[4-[(4-methylpyrimidin-2-yl)sulfamoyl]phenyl]benzenesulfonamide

> <PUBCHEM_IUPAC_SYSTEMATIC_NAME>
3,4-dimethoxy-N-[4-[(4-methylpyrimidin-2-yl)sulfamoyl]phenyl]benzenesulfonamide

> <PUBCHEM_IUPAC_TRADITIONAL_NAME>
3,4-dimethoxy-N-[4-[(4-methylpyrimidin-2-yl)sulfamoyl]phenyl]benzenesulfonamide

> <PUBCHEM_IUPAC_INCHI>
InChI=1S/C19H20N4O6S2/c1-13-10-11-20-19(21-13)23-30(24,25)15-6-4-14(5-7-15)22-31(26,27)16-8-9-17(28-2)18(12-16)29-3/h4-12,22H,1-3H3,(H,20,21,23)

> <PUBCHEM_IUPAC_INCHIKEY>
LPCDDGYHEXNNPR-UHFFFAOYSA-N

> <PUBCHEM_XLOGP3>
1.3

> <PUBCHEM_EXACT_MASS>
464.082426

> <PUBCHEM_MOLECULAR_FORMULA>
C19H20N4O6S2

> <PUBCHEM_MOLECULAR_WEIGHT>
464.5153

> <PUBCHEM_OPENEYE_CAN_SMILES>
CC1=NC(=NC=C1)NS(=O)(=O)C2=CC=C(C=C2)NS(=O)(=O)C3=CC(=C(C=C3)OC)OC

> <PUBCHEM_OPENEYE_ISO_SMILES>
CC1=NC(=NC=C1)NS(=O)(=O)C2=CC=C(C=C2)NS(=O)(=O)C3=CC(=C(C=C3)OC)OC

> <PUBCHEM_CACTVS_TPSA>
153

> <PUBCHEM_MONOISOTOPIC_WEIGHT>
464.082426

> <PUBCHEM_TOTAL_CHARGE>
0

> <PUBCHEM_HEAVY_ATOM_COUNT>
31

> <PUBCHEM_ATOM_DEF_STEREO_COUNT>
0

> <PUBCHEM_ATOM_UDEF_STEREO_COUNT>
0

> <PUBCHEM_BOND_DEF_STEREO_COUNT>
0

> <PUBCHEM_BOND_UDEF_STEREO_COUNT>
0

> <PUBCHEM_ISOTOPIC_ATOM_COUNT>
0

> <PUBCHEM_COMPONENT_COUNT>
1

> <PUBCHEM_CACTVS_TAUTO_COUNT>
6

> <PUBCHEM_COORDINATE_TYPE>
1
5
255

> <PUBCHEM_BONDANNOTATIONS>
11  25  8
11  26  8
12  25  8
12  30  8
13  16  8
13  17  8
14  20  8
14  21  8
15  18  8
15  19  8
16  18  8
17  19  8
20  22  8
21  24  8
22  23  8
23  24  8
26  28  8
28  30  8

$$$$
16002052
  -OEChem-11301217182D

 33 35  0     0  0  0  0  0  0999 V2000
    6.3301   -0.2673    0.0000 N   0  0  0  0  0  0  0  0  0  0  0  0
    4.5981   -0.2673    0.0000 C   0  0  0  0  0  0  0  0  0  0  0  0
    2.8660   -0.2673    0.0000 C   0  0  0  0  0  0  0  0  0  0  0  0
    5.4641    0.2327    0.0000 C   0  0  0  0  0  0  0  0  0  0  0  0
    2.8660   -1.2673    0.0000 C   0  0  0  0  0  0  0  0  0  0  0  0
    3.7320    0.2327    0.0000 C   0  0  0  0  0  0  0  0  0  0  0  0
    4.5981   -1.2673    0.0000 C   0  0  0  0  0  0  0  0  0  0  0  0
    7.1962    1.2327    0.0000 C   0  0  0  0  0  0  0  0  0  0  0  0
    7.1962    0.2327    0.0000 C   0  0  0  0  0  0  0  0  0  0  0  0
    3.7320   -1.7673    0.0000 C   0  0  0  0  0  0  0  0  0  0  0  0
    5.4641    1.2327    0.0000 C   0  0  0  0  0  0  0  0  0  0  0  0
    6.3301    1.7327    0.0000 C   0  0  0  0  0  0  0  0  0  0  0  0
    2.0000    0.2327    0.0000 C   0  0  0  0  0  0  0  0  0  0  0  0
    2.0000   -1.7673    0.0000 C   0  0  0  0  0  0  0  0  0  0  0  0
    8.0901    1.7673    0.0000 C   0  0  0  0  0  0  0  0  0  0  0  0
    8.0901   -0.3020    0.0000 C   0  0  0  0  0  0  0  0  0  0  0  0
    8.9962    1.2535    0.0000 C   0  0  0  0  0  0  0  0  0  0  0  0
    8.9962    0.2119    0.0000 C   0  0  0  0  0  0  0  0  0  0  0  0
    3.7320    0.8527    0.0000 H   0  0  0  0  0  0  0  0  0  0  0  0
    5.1350   -1.5773    0.0000 H   0  0  0  0  0  0  0  0  0  0  0  0
    3.7320   -2.3873    0.0000 H   0  0  0  0  0  0  0  0  0  0  0  0
    4.9272    1.5427    0.0000 H   0  0  0  0  0  0  0  0  0  0  0  0
    6.3301    2.3527    0.0000 H   0  0  0  0  0  0  0  0  0  0  0  0
    2.3100    0.7696    0.0000 H   0  0  0  0  0  0  0  0  0  0  0  0
    1.4631    0.5427    0.0000 H   0  0  0  0  0  0  0  0  0  0  0  0
    1.6900   -0.3043    0.0000 H   0  0  0  0  0  0  0  0  0  0  0  0
    1.6900   -1.2304    0.0000 H   0  0  0  0  0  0  0  0  0  0  0  0
    1.4631   -2.0773    0.0000 H   0  0  0  0  0  0  0  0  0  0  0  0
    2.3100   -2.3043    0.0000 H   0  0  0  0  0  0  0  0  0  0  0  0
    8.0829    2.3873    0.0000 H   0  0  0  0  0  0  0  0  0  0  0  0
    8.0829   -0.9220    0.0000 H   0  0  0  0  0  0  0  0  0  0  0  0
    9.5319    1.5656    0.0000 H   0  0  0  0  0  0  0  0  0  0  0  0
    9.5319   -0.1002    0.0000 H   0  0  0  0  0  0  0  0  0  0  0  0
  1  4  2  0  0  0  0
  1  9  1  0  0  0  0
  2  4  1  0  0  0  0
  2  6  2  0  0  0  0
  2  7  1  0  0  0  0
  3  5  2  0  0  0  0
  3  6  1  0  0  0  0
  3 13  1  0  0  0  0
  4 11  1  0  0  0  0
  5 10  1  0  0  0  0
  5 14  1  0  0  0  0
  6 19  1  0  0  0  0
  7 10  2  0  0  0  0
  7 20  1  0  0  0  0
  8  9  1  0  0  0  0
  8 12  1  0  0  0  0
  8 15  2  0  0  0  0
  9 16  2  0  0  0  0
 10 21  1  0  0  0  0
 11 12  2  0  0  0  0
 11 22  1  0  0  0  0
 12 23  1  0  0  0  0
 13 24  1  0  0  0  0
 13 25  1  0  0  0  0
 13 26  1  0  0  0  0
 14 27  1  0  0  0  0
 14 28  1  0  0  0  0
 14 29  1  0  0  0  0
 15 17  1  0  0  0  0
 15 30  1  0  0  0  0
 16 18  1  0  0  0  0
 16 31  1  0  0  0  0
 17 18  2  0  0  0  0
 17 32  1  0  0  0  0
 18 33  1  0  0  0  0
M  END
> <PUBCHEM_COMPOUND_CID>
16002052

> <PUBCHEM_COMPOUND_CANONICALIZED>
1

> <PUBCHEM_CACTVS_COMPLEXITY>
275

> <PUBCHEM_CACTVS_HBOND_ACCEPTOR>
1

> <PUBCHEM_CACTVS_HBOND_DONOR>
0

> <PUBCHEM_CACTVS_ROTATABLE_BOND>
1

> <PUBCHEM_CACTVS_SUBSKEYS>
AAADccB6AAAAAAAAAAAAAAAAAAAAAAAAAAA8YIAAAAAAAACx9AAAHAAAAAAADAiBHgAywPIIEACgAyRiRACCgCAhAiAImCAwZJgIIOLAkZGEIAhggADIyAcQgMAOwAACAAASAACAAAQAACQAAAAAAAAAAA==

> <PUBCHEM_IUPAC_OPENEYE_NAME>
2-(3,4-dimethylphenyl)quinoline

> <PUBCHEM_IUPAC_CAS_NAME>
2-(3,4-dimethylphenyl)quinoline

> <PUBCHEM_IUPAC_NAME>
2-(3,4-dimethylphenyl)quinoline

> <PUBCHEM_IUPAC_SYSTEMATIC_NAME>
2-(3,4-dimethylphenyl)quinoline

> <PUBCHEM_IUPAC_TRADITIONAL_NAME>
2-(3,4-dimethylphenyl)quinoline

> <PUBCHEM_IUPAC_INCHI>
InChI=1S/C17H15N/c1-12-7-8-15(11-13(12)2)17-10-9-14-5-3-4-6-16(14)18-17/h3-11H,1-2H3

> <PUBCHEM_IUPAC_INCHIKEY>
VTKUHPLHSCZQBY-UHFFFAOYSA-N

> <PUBCHEM_XLOGP3>
4.6

> <PUBCHEM_EXACT_MASS>
233.120449

> <PUBCHEM_MOLECULAR_FORMULA>
C17H15N

> <PUBCHEM_MOLECULAR_WEIGHT>
233.3077

> <PUBCHEM_OPENEYE_CAN_SMILES>
CC1=C(C=C(C=C1)C2=NC3=CC=CC=C3C=C2)C

> <PUBCHEM_OPENEYE_ISO_SMILES>
CC1=C(C=C(C=C1)C2=NC3=CC=CC=C3C=C2)C

> <PUBCHEM_CACTVS_TPSA>
12.9

> <PUBCHEM_MONOISOTOPIC_WEIGHT>
233.120449

> <PUBCHEM_TOTAL_CHARGE>
0

> <PUBCHEM_HEAVY_ATOM_COUNT>
18

> <PUBCHEM_ATOM_DEF_STEREO_COUNT>
0

> <PUBCHEM_ATOM_UDEF_STEREO_COUNT>
0

> <PUBCHEM_BOND_DEF_STEREO_COUNT>
0

> <PUBCHEM_BOND_UDEF_STEREO_COUNT>
0

> <PUBCHEM_ISOTOPIC_ATOM_COUNT>
0

> <PUBCHEM_COMPONENT_COUNT>
1

> <PUBCHEM_CACTVS_TAUTO_COUNT>
1

> <PUBCHEM_COORDINATE_TYPE>
1
5
255

> <PUBCHEM_BONDANNOTATIONS>
1  4  8
1  9  8
11  12  8
15  17  8
16  18  8
17  18  8
2  6  8
2  7  8
3  5  8
3  6  8
4  11  8
5  10  8
7  10  8
8  12  8
8  15  8
8  9  8
9  16  8

$$$$
16004385
  -OEChem-11301217192D

 41 43  0     0  0  0  0  0  0999 V2000
    5.4641   -3.2500    0.0000 Cl  0  0  0  0  0  0  0  0  0  0  0  0
    5.4641   -0.2500    0.0000 O   0  0  0  0  0  0  0  0  0  0  0  0
    4.5981    1.2500    0.0000 N   0  0  0  0  0  0  0  0  0  0  0  0
    3.7320   -0.2500    0.0000 N   0  0  0  0  0  0  0  0  0  0  0  0
    5.4641    1.7500    0.0000 C   0  0  0  0  0  0  0  0  0  0  0  0
    3.7320    1.7500    0.0000 C   0  0  0  0  0  0  0  0  0  0  0  0
    3.7320   -1.2500    0.0000 C   0  0  0  0  0  0  0  0  0  0  0  0
    4.5981    0.2500    0.0000 C   0  0  0  0  0  0  0  0  0  0  0  0
    2.8660   -1.7500    0.0000 C   0  0  0  0  0  0  0  0  0  0  0  0
    6.3301    1.2500    0.0000 C   0  0  0  0  0  0  0  0  0  0  0  0
    2.8660    1.2500    0.0000 C   0  0  0  0  0  0  0  0  0  0  0  0
    5.4641    2.7500    0.0000 C   0  0  0  0  0  0  0  0  0  0  0  0
    3.7320    2.7500    0.0000 C   0  0  0  0  0  0  0  0  0  0  0  0
    4.5981   -1.7500    0.0000 C   0  0  0  0  0  0  0  0  0  0  0  0
    2.8660   -2.7500    0.0000 C   0  0  0  0  0  0  0  0  0  0  0  0
    2.0000   -1.2500    0.0000 C   0  0  0  0  0  0  0  0  0  0  0  0
    4.5981   -2.7500    0.0000 C   0  0  0  0  0  0  0  0  0  0  0  0
    3.7320   -3.2500    0.0000 C   0  0  0  0  0  0  0  0  0  0  0  0
    7.1962    1.7500    0.0000 C   0  0  0  0  0  0  0  0  0  0  0  0
    2.0000    1.7500    0.0000 C   0  0  0  0  0  0  0  0  0  0  0  0
    6.3301    3.2500    0.0000 C   0  0  0  0  0  0  0  0  0  0  0  0
    2.8660    3.2500    0.0000 C   0  0  0  0  0  0  0  0  0  0  0  0
    2.0000    2.7500    0.0000 C   0  0  0  0  0  0  0  0  0  0  0  0
    7.1962    2.7500    0.0000 C   0  0  0  0  0  0  0  0  0  0  0  0
    3.1951    0.0600    0.0000 H   0  0  0  0  0  0  0  0  0  0  0  0
    2.8660    0.6300    0.0000 H   0  0  0  0  0  0  0  0  0  0  0  0
    6.3301    0.6300    0.0000 H   0  0  0  0  0  0  0  0  0  0  0  0
    4.2690    3.0600    0.0000 H   0  0  0  0  0  0  0  0  0  0  0  0
    4.9272    3.0600    0.0000 H   0  0  0  0  0  0  0  0  0  0  0  0
    5.1350   -1.4400    0.0000 H   0  0  0  0  0  0  0  0  0  0  0  0
    2.3291   -3.0600    0.0000 H   0  0  0  0  0  0  0  0  0  0  0  0
    2.3100   -0.7131    0.0000 H   0  0  0  0  0  0  0  0  0  0  0  0
    1.4631   -0.9400    0.0000 H   0  0  0  0  0  0  0  0  0  0  0  0
    1.6900   -1.7869    0.0000 H   0  0  0  0  0  0  0  0  0  0  0  0
    3.7320   -3.8700    0.0000 H   0  0  0  0  0  0  0  0  0  0  0  0
    1.4631    1.4400    0.0000 H   0  0  0  0  0  0  0  0  0  0  0  0
    7.7331    1.4400    0.0000 H   0  0  0  0  0  0  0  0  0  0  0  0
    2.8660    3.8700    0.0000 H   0  0  0  0  0  0  0  0  0  0  0  0
    6.3301    3.8700    0.0000 H   0  0  0  0  0  0  0  0  0  0  0  0
    1.4631    3.0600    0.0000 H   0  0  0  0  0  0  0  0  0  0  0  0
    7.7331    3.0600    0.0000 H   0  0  0  0  0  0  0  0  0  0  0  0
  1 17  1  0  0  0  0
  2  8  2  0  0  0  0
  3  5  1  0  0  0  0
  3  6  1  0  0  0  0
  3  8  1  0  0  0  0
  4  7  1  0  0  0  0
  4  8  1  0  0  0  0
  4 25  1  0  0  0  0
  5 10  2  0  0  0  0
  5 12  1  0  0  0  0
  6 11  2  0  0  0  0
  6 13  1  0  0  0  0
  7  9  2  0  0  0  0
  7 14  1  0  0  0  0
  9 15  1  0  0  0  0
  9 16  1  0  0  0  0
 10 19  1  0  0  0  0
 10 27  1  0  0  0  0
 11 20  1  0  0  0  0
 11 26  1  0  0  0  0
 12 21  2  0  0  0  0
 12 29  1  0  0  0  0
 13 22  2  0  0  0  0
 13 28  1  0  0  0  0
 14 17  2  0  0  0  0
 14 30  1  0  0  0  0
 15 18  2  0  0  0  0
 15 31  1  0  0  0  0
 16 32  1  0  0  0  0
 16 33  1  0  0  0  0
 16 34  1  0  0  0  0
 17 18  1  0  0  0  0
 18 35  1  0  0  0  0
 19 24  2  0  0  0  0
 19 37  1  0  0  0  0
 20 23  2  0  0  0  0
 20 36  1  0  0  0  0
 21 24  1  0  0  0  0
 21 39  1  0  0  0  0
 22 23  1  0  0  0  0
 22 38  1  0  0  0  0
 23 40  1  0  0  0  0
 24 41  1  0  0  0  0
M  END
> <PUBCHEM_COMPOUND_CID>
16004385

> <PUBCHEM_COMPOUND_CANONICALIZED>
1

> <PUBCHEM_CACTVS_COMPLEXITY>
386

> <PUBCHEM_CACTVS_HBOND_ACCEPTOR>
1

> <PUBCHEM_CACTVS_HBOND_DONOR>
1

> <PUBCHEM_CACTVS_ROTATABLE_BOND>
3

> <PUBCHEM_CACTVS_SUBSKEYS>
AAADceB7IAAEAAAAAAAAAAAAAAAAAAAAAAAwYMAAAAAAAAABUAAAHgIQAAAADAqBGCAzwIPAAACIAiRCUACCAAAhBwAIiAAAZoiIIGLBk5GEIAholALIyCcQgAAOBAAAAAICAAAIAAAABAQAAAAAAAAAAA==

> <PUBCHEM_IUPAC_OPENEYE_NAME>
3-(5-chloro-2-methyl-phenyl)-1,1-diphenyl-urea

> <PUBCHEM_IUPAC_CAS_NAME>
3-(5-chloro-2-methylphenyl)-1,1-diphenylurea

> <PUBCHEM_IUPAC_NAME>
3-(5-chloro-2-methylphenyl)-1,1-diphenylurea

> <PUBCHEM_IUPAC_SYSTEMATIC_NAME>
3-(5-chloranyl-2-methyl-phenyl)-1,1-diphenyl-urea

> <PUBCHEM_IUPAC_TRADITIONAL_NAME>
3-(5-chloro-2-methyl-phenyl)-1,1-diphenyl-urea

> <PUBCHEM_IUPAC_INCHI>
InChI=1S/C20H17ClN2O/c1-15-12-13-16(21)14-19(15)22-20(24)23(17-8-4-2-5-9-17)18-10-6-3-7-11-18/h2-14H,1H3,(H,22,24)

> <PUBCHEM_IUPAC_INCHIKEY>
MOJNSWKMXSYRMU-UHFFFAOYSA-N

> <PUBCHEM_XLOGP3>
5

> <PUBCHEM_EXACT_MASS>
336.102941

> <PUBCHEM_MOLECULAR_FORMULA>
C20H17ClN2O

> <PUBCHEM_MOLECULAR_WEIGHT>
336.81478

> <PUBCHEM_OPENEYE_CAN_SMILES>
CC1=C(C=C(C=C1)Cl)NC(=O)N(C2=CC=CC=C2)C3=CC=CC=C3

> <PUBCHEM_OPENEYE_ISO_SMILES>
CC1=C(C=C(C=C1)Cl)NC(=O)N(C2=CC=CC=C2)C3=CC=CC=C3

> <PUBCHEM_CACTVS_TPSA>
32.3

> <PUBCHEM_MONOISOTOPIC_WEIGHT>
336.102941

> <PUBCHEM_TOTAL_CHARGE>
0

> <PUBCHEM_HEAVY_ATOM_COUNT>
24

> <PUBCHEM_ATOM_DEF_STEREO_COUNT>
0

> <PUBCHEM_ATOM_UDEF_STEREO_COUNT>
0

> <PUBCHEM_BOND_DEF_STEREO_COUNT>
0

> <PUBCHEM_BOND_UDEF_STEREO_COUNT>
0

> <PUBCHEM_ISOTOPIC_ATOM_COUNT>
0

> <PUBCHEM_COMPONENT_COUNT>
1

> <PUBCHEM_CACTVS_TAUTO_COUNT>
2

> <PUBCHEM_COORDINATE_TYPE>
1
5
255

> <PUBCHEM_BONDANNOTATIONS>
10  19  8
11  20  8
12  21  8
13  22  8
14  17  8
15  18  8
17  18  8
19  24  8
20  23  8
21  24  8
22  23  8
5  10  8
5  12  8
6  11  8
6  13  8
7  14  8
7  9  8
9  15  8

$$$$
16010664
  -OEChem-11301217192D

 49 51  0     1  0  0  0  0  0999 V2000
    4.5981   -0.2500    0.0000 O   0  0  0  0  0  0  0  0  0  0  0  0
    4.5981    1.7500    0.0000 N   0  0  0  0  0  0  0  0  0  0  0  0
    2.8660   -0.2500    0.0000 N   0  0  0  0  0  0  0  0  0  0  0  0
    3.7320    1.2500    0.0000 C   0  0  3  0  0  0  0  0  0  0  0  0
    2.8660    1.7500    0.0000 C   0  0  0  0  0  0  0  0  0  0  0  0
    3.7320    0.2500    0.0000 C   0  0  0  0  0  0  0  0  0  0  0  0
    2.8660    2.7500    0.0000 C   0  0  0  0  0  0  0  0  0  0  0  0
    2.8660   -4.2500    0.0000 C   0  0  0  0  0  0  0  0  0  0  0  0
    2.8660   -3.2500    0.0000 C   0  0  0  0  0  0  0  0  0  0  0  0
    5.5116    1.3433    0.0000 C   0  0  0  0  0  0  0  0  0  0  0  0
    4.7026    2.7445    0.0000 C   0  0  0  0  0  0  0  0  0  0  0  0
    2.8660   -1.2500    0.0000 C   0  0  0  0  0  0  0  0  0  0  0  0
    3.7320   -2.7500    0.0000 C   0  0  0  0  0  0  0  0  0  0  0  0
    2.0000   -2.7500    0.0000 C   0  0  0  0  0  0  0  0  0  0  0  0
    3.7320   -1.7500    0.0000 C   0  0  0  0  0  0  0  0  0  0  0  0
    2.0000   -1.7500    0.0000 C   0  0  0  0  0  0  0  0  0  0  0  0
    3.7320    3.2500    0.0000 C   0  0  0  0  0  0  0  0  0  0  0  0
    2.0000    3.2500    0.0000 C   0  0  0  0  0  0  0  0  0  0  0  0
    6.1808    2.0864    0.0000 C   0  0  0  0  0  0  0  0  0  0  0  0
    5.6808    2.9524    0.0000 C   0  0  0  0  0  0  0  0  0  0  0  0
    2.0000   -4.7500    0.0000 C   0  0  0  0  0  0  0  0  0  0  0  0
    3.7320   -4.7500    0.0000 C   0  0  0  0  0  0  0  0  0  0  0  0
    3.7320    4.2500    0.0000 C   0  0  0  0  0  0  0  0  0  0  0  0
    2.0000    4.2500    0.0000 C   0  0  0  0  0  0  0  0  0  0  0  0
    2.8660    4.7500    0.0000 C   0  0  0  0  0  0  0  0  0  0  0  0
    4.2690    0.9400    0.0000 H   0  0  0  0  0  0  0  0  0  0  0  0
    2.2554    1.8577    0.0000 H   0  0  0  0  0  0  0  0  0  0  0  0
    2.6540    1.1674    0.0000 H   0  0  0  0  0  0  0  0  0  0  0  0
    2.8660   -4.8700    0.0000 H   0  0  0  0  0  0  0  0  0  0  0  0
    2.3291    0.0600    0.0000 H   0  0  0  0  0  0  0  0  0  0  0  0
    4.2419    3.1594    0.0000 H   0  0  0  0  0  0  0  0  0  0  0  0
    5.6405    0.7368    0.0000 H   0  0  0  0  0  0  0  0  0  0  0  0
    4.2690   -3.0600    0.0000 H   0  0  0  0  0  0  0  0  0  0  0  0
    1.4631   -3.0600    0.0000 H   0  0  0  0  0  0  0  0  0  0  0  0
    4.2690   -1.4400    0.0000 H   0  0  0  0  0  0  0  0  0  0  0  0
    1.4631   -1.4400    0.0000 H   0  0  0  0  0  0  0  0  0  0  0  0
    4.2690    2.9400    0.0000 H   0  0  0  0  0  0  0  0  0  0  0  0
    1.4631    2.9400    0.0000 H   0  0  0  0  0  0  0  0  0  0  0  0
    5.9329    3.5188    0.0000 H   0  0  0  0  0  0  0  0  0  0  0  0
    6.7974    2.0216    0.0000 H   0  0  0  0  0  0  0  0  0  0  0  0
    1.6900   -4.2131    0.0000 H   0  0  0  0  0  0  0  0  0  0  0  0
    1.4631   -5.0600    0.0000 H   0  0  0  0  0  0  0  0  0  0  0  0
    2.3100   -5.2869    0.0000 H   0  0  0  0  0  0  0  0  0  0  0  0
    3.4220   -5.2869    0.0000 H   0  0  0  0  0  0  0  0  0  0  0  0
    4.2690   -5.0600    0.0000 H   0  0  0  0  0  0  0  0  0  0  0  0
    4.0420   -4.2131    0.0000 H   0  0  0  0  0  0  0  0  0  0  0  0
    4.2690    4.5600    0.0000 H   0  0  0  0  0  0  0  0  0  0  0  0
    1.4631    4.5600    0.0000 H   0  0  0  0  0  0  0  0  0  0  0  0
    2.8660    5.3700    0.0000 H   0  0  0  0  0  0  0  0  0  0  0  0
  1  6  2  0  0  0  0
  2  4  1  0  0  0  0
  2 10  1  0  0  0  0
  2 11  1  0  0  0  0
  3  6  1  0  0  0  0
  3 12  1  0  0  0  0
  3 30  1  0  0  0  0
  4  5  1  0  0  0  0
  4  6  1  0  0  0  0
  4 26  1  0  0  0  0
  5  7  1  0  0  0  0
  5 27  1  0  0  0  0
  5 28  1  0  0  0  0
  7 17  2  0  0  0  0
  7 18  1  0  0  0  0
  8  9  1  0  0  0  0
  8 21  1  0  0  0  0
  8 22  1  0  0  0  0
  8 29  1  0  0  0  0
  9 13  2  0  0  0  0
  9 14  1  0  0  0  0
 10 19  2  0  0  0  0
 10 32  1  0  0  0  0
 11 20  2  0  0  0  0
 11 31  1  0  0  0  0
 12 15  2  0  0  0  0
 12 16  1  0  0  0  0
 13 15  1  0  0  0  0
 13 33  1  0  0  0  0
 14 16  2  0  0  0  0
 14 34  1  0  0  0  0
 15 35  1  0  0  0  0
 16 36  1  0  0  0  0
 17 23  1  0  0  0  0
 17 37  1  0  0  0  0
 18 24  2  0  0  0  0
 18 38  1  0  0  0  0
 19 20  1  0  0  0  0
 19 40  1  0  0  0  0
 20 39  1  0  0  0  0
 21 41  1  0  0  0  0
 21 42  1  0  0  0  0
 21 43  1  0  0  0  0
 22 44  1  0  0  0  0
 22 45  1  0  0  0  0
 22 46  1  0  0  0  0
 23 25  2  0  0  0  0
 23 47  1  0  0  0  0
 24 25  1  0  0  0  0
 24 48  1  0  0  0  0
 25 49  1  0  0  0  0
M  END
> <PUBCHEM_COMPOUND_CID>
16010664

> <PUBCHEM_COMPOUND_CANONICALIZED>
1

> <PUBCHEM_CACTVS_COMPLEXITY>
402

> <PUBCHEM_CACTVS_HBOND_ACCEPTOR>
1

> <PUBCHEM_CACTVS_HBOND_DONOR>
1

> <PUBCHEM_CACTVS_ROTATABLE_BOND>
6

> <PUBCHEM_CACTVS_SUBSKEYS>
AAADceB7IAAAAAAAAAAAAAAAAAAAAWAAAAAwYAAAAAAAAAAB0AAAHgAQAAAADSjBmgQ+wJPMEACoAjV3VACCgCAxAiAI2CG4ZJgIYPLAkbGUIAhglADIyAcYiMCOiAAAAAAAAAAQAAAAAAAAAAAAAAAAAA==

> <PUBCHEM_IUPAC_OPENEYE_NAME>
N-(4-isopropylphenyl)-3-phenyl-2-pyrrol-1-yl-propanamide

> <PUBCHEM_IUPAC_CAS_NAME>
3-phenyl-N-(4-propan-2-ylphenyl)-2-(1-pyrrolyl)propanamide

> <PUBCHEM_IUPAC_NAME>
3-phenyl-N-(4-propan-2-ylphenyl)-2-pyrrol-1-ylpropanamide

> <PUBCHEM_IUPAC_SYSTEMATIC_NAME>
3-phenyl-N-(4-propan-2-ylphenyl)-2-pyrrol-1-yl-propanamide

> <PUBCHEM_IUPAC_TRADITIONAL_NAME>
N-p-cumenyl-3-phenyl-2-pyrrol-1-yl-propionamide

> <PUBCHEM_IUPAC_INCHI>
InChI=1S/C22H24N2O/c1-17(2)19-10-12-20(13-11-19)23-22(25)21(24-14-6-7-15-24)16-18-8-4-3-5-9-18/h3-15,17,21H,16H2,1-2H3,(H,23,25)

> <PUBCHEM_IUPAC_INCHIKEY>
AOEGTDSJPAVEJZ-UHFFFAOYSA-N

> <PUBCHEM_XLOGP3>
4.8

> <PUBCHEM_EXACT_MASS>
332.188863

> <PUBCHEM_MOLECULAR_FORMULA>
C22H24N2O

> <PUBCHEM_MOLECULAR_WEIGHT>
332.43876

> <PUBCHEM_OPENEYE_CAN_SMILES>
CC(C)C1=CC=C(C=C1)NC(=O)C(CC2=CC=CC=C2)N3C=CC=C3

> <PUBCHEM_OPENEYE_ISO_SMILES>
CC(C)C1=CC=C(C=C1)NC(=O)C(CC2=CC=CC=C2)N3C=CC=C3

> <PUBCHEM_CACTVS_TPSA>
34

> <PUBCHEM_MONOISOTOPIC_WEIGHT>
332.188863

> <PUBCHEM_TOTAL_CHARGE>
0

> <PUBCHEM_HEAVY_ATOM_COUNT>
25

> <PUBCHEM_ATOM_DEF_STEREO_COUNT>
0

> <PUBCHEM_ATOM_UDEF_STEREO_COUNT>
1

> <PUBCHEM_BOND_DEF_STEREO_COUNT>
0

> <PUBCHEM_BOND_UDEF_STEREO_COUNT>
0

> <PUBCHEM_ISOTOPIC_ATOM_COUNT>
0

> <PUBCHEM_COMPONENT_COUNT>
1

> <PUBCHEM_CACTVS_TAUTO_COUNT>
3

> <PUBCHEM_COORDINATE_TYPE>
1
5
255

> <PUBCHEM_BONDANNOTATIONS>
10  19  8
11  20  8
12  15  8
12  16  8
13  15  8
14  16  8
17  23  8
18  24  8
19  20  8
2  10  8
2  11  8
23  25  8
24  25  8
4  5  3
7  17  8
7  18  8
9  13  8
9  14  8

$$$$
