5679794
  -OEChem-03221309122D

 37 37  0     1  0  0  0  0  0999 V2000
    5.4641   -0.5000    0.0000 O   0  0  0  0  0  0  0  0  0  0  0  0
    5.4641    1.5000    0.0000 N   0  3  0  0  0  0  0  0  0  0  0  0
    3.7320   -0.5000    0.0000 N   0  0  0  0  0  0  0  0  0  0  0  0
    6.3301    2.0000    0.0000 C   0  0  1  0  0  0  0  0  0  0  0  0
    6.3301    3.0000    0.0000 C   0  0  0  0  0  0  0  0  0  0  0  0
    4.5981    1.0000    0.0000 C   0  0  0  0  0  0  0  0  0  0  0  0
    7.1962    1.5000    0.0000 C   0  0  0  0  0  0  0  0  0  0  0  0
    7.1962    3.5000    0.0000 C   0  0  0  0  0  0  0  0  0  0  0  0
    4.5981    0.0000    0.0000 C   0  0  0  0  0  0  0  0  0  0  0  0
    3.7320   -1.5000    0.0000 C   0  0  0  0  0  0  0  0  0  0  0  0
    2.8660   -2.0000    0.0000 C   0  0  0  0  0  0  0  0  0  0  0  0
    2.8660   -3.0000    0.0000 C   0  0  0  0  0  0  0  0  0  0  0  0
    4.5981   -2.0000    0.0000 C   0  0  0  0  0  0  0  0  0  0  0  0
    3.7320   -3.5000    0.0000 C   0  0  0  0  0  0  0  0  0  0  0  0
    4.5981   -3.0000    0.0000 C   0  0  0  0  0  0  0  0  0  0  0  0
    2.0000   -3.5000    0.0000 C   0  0  0  0  0  0  0  0  0  0  0  0
    5.7932    2.3100    0.0000 H   0  0  0  0  0  0  0  0  0  0  0  0
    5.1541    2.0369    0.0000 H   0  0  0  0  0  0  0  0  0  0  0  0
    5.7741    0.9631    0.0000 H   0  0  0  0  0  0  0  0  0  0  0  0
    6.1181    3.5826    0.0000 H   0  0  0  0  0  0  0  0  0  0  0  0
    5.7196    2.8923    0.0000 H   0  0  0  0  0  0  0  0  0  0  0  0
    4.3860    1.5826    0.0000 H   0  0  0  0  0  0  0  0  0  0  0  0
    3.9875    0.8923    0.0000 H   0  0  0  0  0  0  0  0  0  0  0  0
    6.8862    0.9631    0.0000 H   0  0  0  0  0  0  0  0  0  0  0  0
    7.7331    1.1900    0.0000 H   0  0  0  0  0  0  0  0  0  0  0  0
    7.5062    2.0369    0.0000 H   0  0  0  0  0  0  0  0  0  0  0  0
    7.5062    2.9631    0.0000 H   0  0  0  0  0  0  0  0  0  0  0  0
    7.7331    3.8100    0.0000 H   0  0  0  0  0  0  0  0  0  0  0  0
    6.8862    4.0369    0.0000 H   0  0  0  0  0  0  0  0  0  0  0  0
    3.1951   -0.1900    0.0000 H   0  0  0  0  0  0  0  0  0  0  0  0
    2.3291   -1.6900    0.0000 H   0  0  0  0  0  0  0  0  0  0  0  0
    5.1350   -1.6900    0.0000 H   0  0  0  0  0  0  0  0  0  0  0  0
    3.7320   -4.1200    0.0000 H   0  0  0  0  0  0  0  0  0  0  0  0
    5.1350   -3.3100    0.0000 H   0  0  0  0  0  0  0  0  0  0  0  0
    1.6900   -2.9631    0.0000 H   0  0  0  0  0  0  0  0  0  0  0  0
    1.4631   -3.8100    0.0000 H   0  0  0  0  0  0  0  0  0  0  0  0
    2.3100   -4.0369    0.0000 H   0  0  0  0  0  0  0  0  0  0  0  0
  1  9  2  0  0  0  0
  4  2  1  1  0  0  0
  2  6  1  0  0  0  0
  2 18  1  0  0  0  0
  2 19  1  0  0  0  0
  3  9  1  0  0  0  0
  3 10  1  0  0  0  0
  3 30  1  0  0  0  0
  4  5  1  0  0  0  0
  4  7  1  0  0  0  0
  4 17  1  0  0  0  0
  5  8  1  0  0  0  0
  5 20  1  0  0  0  0
  5 21  1  0  0  0  0
  6  9  1  0  0  0  0
  6 22  1  0  0  0  0
  6 23  1  0  0  0  0
  7 24  1  0  0  0  0
  7 25  1  0  0  0  0
  7 26  1  0  0  0  0
  8 27  1  0  0  0  0
  8 28  1  0  0  0  0
  8 29  1  0  0  0  0
 10 11  1  0  0  0  0
 10 13  2  0  0  0  0
 11 12  2  0  0  0  0
 11 31  1  0  0  0  0
 12 14  1  0  0  0  0
 12 16  1  0  0  0  0
 13 15  1  0  0  0  0
 13 32  1  0  0  0  0
 14 15  2  0  0  0  0
 14 33  1  0  0  0  0
 15 34  1  0  0  0  0
 16 35  1  0  0  0  0
 16 36  1  0  0  0  0
 16 37  1  0  0  0  0
M  CHG  1   2   1
M  END
> <PUBCHEM_COMPOUND_CID>
5679794

> <PUBCHEM_COMPOUND_CANONICALIZED>
1

> <PUBCHEM_CACTVS_COMPLEXITY>
218

> <PUBCHEM_CACTVS_HBOND_ACCEPTOR>
1

> <PUBCHEM_CACTVS_HBOND_DONOR>
2

> <PUBCHEM_CACTVS_ROTATABLE_BOND>
5

> <PUBCHEM_CACTVS_SUBSKEYS>
AAADceBzIAAAAAAAAAAAAAAAAAAAAAAAAAAwAAAAAAAAAAABAAAAHgAQAAAADCjBmAQywILAAACIAiVSUACCAAAhAgAIiICIZIgIYCLAkbGUIAhglADIyAcQgAAOAAAAQAAAAAAAAACAAAAAAAAAAAAAAA==

> <PUBCHEM_IUPAC_OPENEYE_NAME>
[2-(3-methylanilino)-2-oxo-ethyl]-[(1R)-1-methylpropyl]ammonium

> <PUBCHEM_IUPAC_CAS_NAME>
[(2R)-butan-2-yl]-[2-(3-methylanilino)-2-oxoethyl]ammonium

> <PUBCHEM_IUPAC_NAME>
[(2R)-butan-2-yl]-[2-(3-methylanilino)-2-oxoethyl]azanium

> <PUBCHEM_IUPAC_SYSTEMATIC_NAME>
[(2R)-butan-2-yl]-[2-[(3-methylphenyl)amino]-2-oxidanylidene-ethyl]azanium

> <PUBCHEM_IUPAC_TRADITIONAL_NAME>
[2-keto-2-(m-toluidino)ethyl]-[(1R)-1-methylpropyl]ammonium

> <PUBCHEM_IUPAC_INCHI>
InChI=1S/C13H20N2O/c1-4-11(3)14-9-13(16)15-12-7-5-6-10(2)8-12/h5-8,11,14H,4,9H2,1-3H3,(H,15,16)/p+1/t11-/m1/s1

> <PUBCHEM_IUPAC_INCHIKEY>
XRHQVVUGMMWYGW-LLVKDONJSA-O

> <PUBCHEM_XLOGP3>
2.6

> <PUBCHEM_EXACT_MASS>
221.165388

> <PUBCHEM_MOLECULAR_FORMULA>
C13H21N2O+

> <PUBCHEM_MOLECULAR_WEIGHT>
221.31864

> <PUBCHEM_OPENEYE_CAN_SMILES>
CCC(C)[NH2+]CC(=O)NC1=CC=CC(=C1)C

> <PUBCHEM_OPENEYE_ISO_SMILES>
CC[C@@H](C)[NH2+]CC(=O)NC1=CC=CC(=C1)C

> <PUBCHEM_CACTVS_TPSA>
45.7

> <PUBCHEM_MONOISOTOPIC_WEIGHT>
221.165388

> <PUBCHEM_TOTAL_CHARGE>
1

> <PUBCHEM_HEAVY_ATOM_COUNT>
16

> <PUBCHEM_ATOM_DEF_STEREO_COUNT>
1

> <PUBCHEM_ATOM_UDEF_STEREO_COUNT>
0

> <PUBCHEM_BOND_DEF_STEREO_COUNT>
0

> <PUBCHEM_BOND_UDEF_STEREO_COUNT>
0

> <PUBCHEM_ISOTOPIC_ATOM_COUNT>
0

> <PUBCHEM_COMPONENT_COUNT>
1

> <PUBCHEM_CACTVS_TAUTO_COUNT>
3

> <PUBCHEM_COORDINATE_TYPE>
1
5
255

> <PUBCHEM_BONDANNOTATIONS>
10  11  8
10  13  8
11  12  8
12  14  8
13  15  8
14  15  8
4  2  5

$$$$
