4961269
  -OEChem-11301216572D

 27 28  0     0  0  0  0  0  0999 V2000
    2.0000   -2.5000    0.0000 Br  0  0  0  0  0  0  0  0  0  0  0  0
    3.7320    0.5000    0.0000 N   0  0  0  0  0  0  0  0  0  0  0  0
    3.7320    2.5000    0.0000 C   0  0  0  0  0  0  0  0  0  0  0  0
    4.5981    2.0000    0.0000 C   0  0  0  0  0  0  0  0  0  0  0  0
    2.8660    2.0000    0.0000 C   0  0  0  0  0  0  0  0  0  0  0  0
    4.5981    1.0000    0.0000 C   0  0  0  0  0  0  0  0  0  0  0  0
    2.8660    1.0000    0.0000 C   0  0  0  0  0  0  0  0  0  0  0  0
    3.7320   -0.5000    0.0000 C   0  0  0  0  0  0  0  0  0  0  0  0
    2.8660   -1.0000    0.0000 C   0  0  0  0  0  0  0  0  0  0  0  0
    4.5981   -1.0000    0.0000 C   0  0  0  0  0  0  0  0  0  0  0  0
    2.8660   -2.0000    0.0000 C   0  0  0  0  0  0  0  0  0  0  0  0
    4.5981   -2.0000    0.0000 C   0  0  0  0  0  0  0  0  0  0  0  0
    3.7320   -2.5000    0.0000 C   0  0  0  0  0  0  0  0  0  0  0  0
    4.1306    2.9750    0.0000 H   0  0  0  0  0  0  0  0  0  0  0  0
    3.3335    2.9750    0.0000 H   0  0  0  0  0  0  0  0  0  0  0  0
    5.2087    1.8923    0.0000 H   0  0  0  0  0  0  0  0  0  0  0  0
    4.8101    2.5826    0.0000 H   0  0  0  0  0  0  0  0  0  0  0  0
    2.6540    2.5826    0.0000 H   0  0  0  0  0  0  0  0  0  0  0  0
    2.2554    1.8923    0.0000 H   0  0  0  0  0  0  0  0  0  0  0  0
    2.2554    1.1077    0.0000 H   0  0  0  0  0  0  0  0  0  0  0  0
    2.6540    0.4174    0.0000 H   0  0  0  0  0  0  0  0  0  0  0  0
    4.8101    0.4174    0.0000 H   0  0  0  0  0  0  0  0  0  0  0  0
    5.2087    1.1077    0.0000 H   0  0  0  0  0  0  0  0  0  0  0  0
    2.3291   -0.6900    0.0000 H   0  0  0  0  0  0  0  0  0  0  0  0
    5.1350   -0.6900    0.0000 H   0  0  0  0  0  0  0  0  0  0  0  0
    5.1350   -2.3100    0.0000 H   0  0  0  0  0  0  0  0  0  0  0  0
    3.7320   -3.1200    0.0000 H   0  0  0  0  0  0  0  0  0  0  0  0
  1 11  1  0  0  0  0
  2  6  1  0  0  0  0
  2  7  1  0  0  0  0
  2  8  1  0  0  0  0
  3  4  1  0  0  0  0
  3  5  1  0  0  0  0
  3 14  1  0  0  0  0
  3 15  1  0  0  0  0
  4  6  1  0  0  0  0
  4 16  1  0  0  0  0
  4 17  1  0  0  0  0
  5  7  1  0  0  0  0
  5 18  1  0  0  0  0
  5 19  1  0  0  0  0
  6 22  1  0  0  0  0
  6 23  1  0  0  0  0
  7 20  1  0  0  0  0
  7 21  1  0  0  0  0
  8  9  2  0  0  0  0
  8 10  1  0  0  0  0
  9 11  1  0  0  0  0
  9 24  1  0  0  0  0
 10 12  2  0  0  0  0
 10 25  1  0  0  0  0
 11 13  2  0  0  0  0
 12 13  1  0  0  0  0
 12 26  1  0  0  0  0
 13 27  1  0  0  0  0
M  END
> <PUBCHEM_COMPOUND_CID>
4961269

> <PUBCHEM_COMPOUND_CANONICALIZED>
1

> <PUBCHEM_CACTVS_COMPLEXITY>
154

> <PUBCHEM_CACTVS_HBOND_ACCEPTOR>
1

> <PUBCHEM_CACTVS_HBOND_DONOR>
0

> <PUBCHEM_CACTVS_ROTATABLE_BOND>
1

> <PUBCHEM_CACTVS_SUBSKEYS>
AAADccByAAAAEAAAAAAAAAAAAAAAAAAAAAA8QAAAAAAAAAABAAAAHABAAAABqAjBEAQwwIMAAACAACRCQACCAAAhAgQIiAAIZKgIICLAkZGEIAhggADIyhcQAAAAAAAAAAEAAAAAAAAAAgAAAAAAAAAAAA==

> <PUBCHEM_IUPAC_OPENEYE_NAME>
1-(3-bromophenyl)piperidine

> <PUBCHEM_IUPAC_CAS_NAME>
1-(3-bromophenyl)piperidine

> <PUBCHEM_IUPAC_NAME>
1-(3-bromophenyl)piperidine

> <PUBCHEM_IUPAC_SYSTEMATIC_NAME>
1-(3-bromophenyl)piperidine

> <PUBCHEM_IUPAC_TRADITIONAL_NAME>
1-(3-bromophenyl)piperidine

> <PUBCHEM_IUPAC_INCHI>
InChI=1S/C11H14BrN/c12-10-5-4-6-11(9-10)13-7-2-1-3-8-13/h4-6,9H,1-3,7-8H2

> <PUBCHEM_IUPAC_INCHIKEY>
PMTXPOLLPCSCBE-UHFFFAOYSA-N

> <PUBCHEM_XLOGP3>
3.7

> <PUBCHEM_EXACT_MASS>
239.030962

> <PUBCHEM_MOLECULAR_FORMULA>
C11H14BrN

> <PUBCHEM_MOLECULAR_WEIGHT>
240.13956

> <PUBCHEM_OPENEYE_CAN_SMILES>
C1CCN(CC1)C2=CC(=CC=C2)Br

> <PUBCHEM_OPENEYE_ISO_SMILES>
C1CCN(CC1)C2=CC(=CC=C2)Br

> <PUBCHEM_CACTVS_TPSA>
3.2

> <PUBCHEM_MONOISOTOPIC_WEIGHT>
239.030962

> <PUBCHEM_TOTAL_CHARGE>
0

> <PUBCHEM_HEAVY_ATOM_COUNT>
13

> <PUBCHEM_ATOM_DEF_STEREO_COUNT>
0

> <PUBCHEM_ATOM_UDEF_STEREO_COUNT>
0

> <PUBCHEM_BOND_DEF_STEREO_COUNT>
0

> <PUBCHEM_BOND_UDEF_STEREO_COUNT>
0

> <PUBCHEM_ISOTOPIC_ATOM_COUNT>
0

> <PUBCHEM_COMPONENT_COUNT>
1

> <PUBCHEM_CACTVS_TAUTO_COUNT>
1

> <PUBCHEM_COORDINATE_TYPE>
1
5
255

> <PUBCHEM_BONDANNOTATIONS>
10  12  8
11  13  8
12  13  8
8  10  8
8  9  8
9  11  8

$$$$
4961853
  -OEChem-11301216572D

 20 21  0     0  0  0  0  0  0999 V2000
    2.5369    1.0000    0.0000 S   0  0  0  0  0  0  0  0  0  0  0  0
    6.6648    0.0000    0.0000 C   0  0  0  0  0  0  0  0  0  0  0  0
    6.0812    0.8047    0.0000 C   0  0  0  0  0  0  0  0  0  0  0  0
    6.0812   -0.8047    0.0000 C   0  0  0  0  0  0  0  0  0  0  0  0
    5.1350    0.5000    0.0000 C   0  0  0  0  0  0  0  0  0  0  0  0
    5.1350   -0.5000    0.0000 C   0  0  0  0  0  0  0  0  0  0  0  0
    4.2690    1.0000    0.0000 C   0  0  0  0  0  0  0  0  0  0  0  0
    4.2690   -1.0000    0.0000 C   0  0  0  0  0  0  0  0  0  0  0  0
    3.4030    0.5000    0.0000 C   0  0  0  0  0  0  0  0  0  0  0  0
    3.4030   -0.5000    0.0000 C   0  0  0  0  0  0  0  0  0  0  0  0
    7.1257   -0.4147    0.0000 H   0  0  0  0  0  0  0  0  0  0  0  0
    7.1257    0.4147    0.0000 H   0  0  0  0  0  0  0  0  0  0  0  0
    6.6186    1.1140    0.0000 H   0  0  0  0  0  0  0  0  0  0  0  0
    5.8302    1.3716    0.0000 H   0  0  0  0  0  0  0  0  0  0  0  0
    5.8302   -1.3716    0.0000 H   0  0  0  0  0  0  0  0  0  0  0  0
    6.6186   -1.1140    0.0000 H   0  0  0  0  0  0  0  0  0  0  0  0
    4.2690    1.6200    0.0000 H   0  0  0  0  0  0  0  0  0  0  0  0
    4.2690   -1.6200    0.0000 H   0  0  0  0  0  0  0  0  0  0  0  0
    2.8660   -0.8100    0.0000 H   0  0  0  0  0  0  0  0  0  0  0  0
    2.0000    0.6900    0.0000 H   0  0  0  0  0  0  0  0  0  0  0  0
  1  9  1  0  0  0  0
  1 20  1  0  0  0  0
  2  3  1  0  0  0  0
  2  4  1  0  0  0  0
  2 11  1  0  0  0  0
  2 12  1  0  0  0  0
  3  5  1  0  0  0  0
  3 13  1  0  0  0  0
  3 14  1  0  0  0  0
  4  6  1  0  0  0  0
  4 15  1  0  0  0  0
  4 16  1  0  0  0  0
  5  6  2  0  0  0  0
  5  7  1  0  0  0  0
  6  8  1  0  0  0  0
  7  9  2  0  0  0  0
  7 17  1  0  0  0  0
  8 10  2  0  0  0  0
  8 18  1  0  0  0  0
  9 10  1  0  0  0  0
 10 19  1  0  0  0  0
M  END
> <PUBCHEM_COMPOUND_CID>
4961853

> <PUBCHEM_COMPOUND_CANONICALIZED>
1

> <PUBCHEM_CACTVS_COMPLEXITY>
122

> <PUBCHEM_CACTVS_HBOND_ACCEPTOR>
1

> <PUBCHEM_CACTVS_HBOND_DONOR>
1

> <PUBCHEM_CACTVS_ROTATABLE_BOND>
0

> <PUBCHEM_CACTVS_SUBSKEYS>
AAADccBwAABAAAAAAAAAAAAAAAAAAYAAAAAwAAAAAAAAAGABAAAAGAQAAAAADACAWAAwAYAAAASAAiBCAAACAAAgAAAIiBgAAIgIICKAERCAIAAggAAIiAcAgIAOkAAAgAAQAAAgAAEAACAAAAAACAAAAA==

> <PUBCHEM_IUPAC_OPENEYE_NAME>
indane-5-thiol

> <PUBCHEM_IUPAC_CAS_NAME>
2,3-dihydro-1H-indene-5-thiol

> <PUBCHEM_IUPAC_NAME>
2,3-dihydro-1H-indene-5-thiol

> <PUBCHEM_IUPAC_SYSTEMATIC_NAME>
2,3-dihydro-1H-indene-5-thiol

> <PUBCHEM_IUPAC_TRADITIONAL_NAME>
indane-5-thiol

> <PUBCHEM_IUPAC_INCHI>
InChI=1S/C9H10S/c10-9-5-4-7-2-1-3-8(7)6-9/h4-6,10H,1-3H2

> <PUBCHEM_IUPAC_INCHIKEY>
CLYYJRUVOVLSDJ-UHFFFAOYSA-N

> <PUBCHEM_XLOGP3>
2.9

> <PUBCHEM_EXACT_MASS>
150.050321

> <PUBCHEM_MOLECULAR_FORMULA>
C9H10S

> <PUBCHEM_MOLECULAR_WEIGHT>
150.2407

> <PUBCHEM_OPENEYE_CAN_SMILES>
C1CC2=C(C1)C=C(C=C2)S

> <PUBCHEM_OPENEYE_ISO_SMILES>
C1CC2=C(C1)C=C(C=C2)S

> <PUBCHEM_CACTVS_TPSA>
1

> <PUBCHEM_MONOISOTOPIC_WEIGHT>
150.050321

> <PUBCHEM_TOTAL_CHARGE>
0

> <PUBCHEM_HEAVY_ATOM_COUNT>
10

> <PUBCHEM_ATOM_DEF_STEREO_COUNT>
0

> <PUBCHEM_ATOM_UDEF_STEREO_COUNT>
0

> <PUBCHEM_BOND_DEF_STEREO_COUNT>
0

> <PUBCHEM_BOND_UDEF_STEREO_COUNT>
0

> <PUBCHEM_ISOTOPIC_ATOM_COUNT>
0

> <PUBCHEM_COMPONENT_COUNT>
1

> <PUBCHEM_CACTVS_TAUTO_COUNT>
9

> <PUBCHEM_COORDINATE_TYPE>
1
5
255

> <PUBCHEM_BONDANNOTATIONS>
5  6  8
5  7  8
6  8  8
7  9  8
8  10  8
9  10  8

$$$$
4962029
  -OEChem-11301216572D

 26 26  0     0  0  0  0  0  0999 V2000
    2.8660    1.7500    0.0000 N   0  0  0  0  0  0  0  0  0  0  0  0
    2.8660   -1.2500    0.0000 C   0  0  0  0  0  0  0  0  0  0  0  0
    2.8660    0.7500    0.0000 C   0  0  0  0  0  0  0  0  0  0  0  0
    3.7320   -0.7500    0.0000 C   0  0  0  0  0  0  0  0  0  0  0  0
    2.0000   -0.7500    0.0000 C   0  0  0  0  0  0  0  0  0  0  0  0
    3.7320    0.2500    0.0000 C   0  0  0  0  0  0  0  0  0  0  0  0
    2.0000    0.2500    0.0000 C   0  0  0  0  0  0  0  0  0  0  0  0
    2.8660   -2.2500    0.0000 C   0  0  0  0  0  0  0  0  0  0  0  0
    3.7320    2.2500    0.0000 C   0  0  0  0  0  0  0  0  0  0  0  0
    3.4030   -1.5600    0.0000 H   0  0  0  0  0  0  0  0  0  0  0  0
    3.4030    1.0600    0.0000 H   0  0  0  0  0  0  0  0  0  0  0  0
    3.9441   -1.3326    0.0000 H   0  0  0  0  0  0  0  0  0  0  0  0
    4.3426   -0.6423    0.0000 H   0  0  0  0  0  0  0  0  0  0  0  0
    1.3894   -0.6423    0.0000 H   0  0  0  0  0  0  0  0  0  0  0  0
    1.7880   -1.3326    0.0000 H   0  0  0  0  0  0  0  0  0  0  0  0
    4.3426    0.1423    0.0000 H   0  0  0  0  0  0  0  0  0  0  0  0
    1.7880    0.8326    0.0000 H   0  0  0  0  0  0  0  0  0  0  0  0
    1.3894    0.1423    0.0000 H   0  0  0  0  0  0  0  0  0  0  0  0
    3.9441    0.8326    0.0000 H   0  0  0  0  0  0  0  0  0  0  0  0
    2.2460   -2.2500    0.0000 H   0  0  0  0  0  0  0  0  0  0  0  0
    2.8660   -2.8700    0.0000 H   0  0  0  0  0  0  0  0  0  0  0  0
    3.4860   -2.2500    0.0000 H   0  0  0  0  0  0  0  0  0  0  0  0
    2.3291    2.0600    0.0000 H   0  0  0  0  0  0  0  0  0  0  0  0
    4.0420    1.7131    0.0000 H   0  0  0  0  0  0  0  0  0  0  0  0
    4.2690    2.5600    0.0000 H   0  0  0  0  0  0  0  0  0  0  0  0
    3.4220    2.7869    0.0000 H   0  0  0  0  0  0  0  0  0  0  0  0
  1  3  1  0  0  0  0
  1  9  1  0  0  0  0
  1 23  1  0  0  0  0
  2  4  1  0  0  0  0
  2  5  1  0  0  0  0
  2  8  1  0  0  0  0
  2 10  1  0  0  0  0
  3  6  1  0  0  0  0
  3  7  1  0  0  0  0
  3 11  1  0  0  0  0
  4  6  1  0  0  0  0
  4 12  1  0  0  0  0
  4 13  1  0  0  0  0
  5  7  1  0  0  0  0
  5 14  1  0  0  0  0
  5 15  1  0  0  0  0
  6 16  1  0  0  0  0
  6 19  1  0  0  0  0
  7 17  1  0  0  0  0
  7 18  1  0  0  0  0
  8 20  1  0  0  0  0
  8 21  1  0  0  0  0
  8 22  1  0  0  0  0
  9 24  1  0  0  0  0
  9 25  1  0  0  0  0
  9 26  1  0  0  0  0
M  END
> <PUBCHEM_COMPOUND_CID>
4962029

> <PUBCHEM_COMPOUND_CANONICALIZED>
1

> <PUBCHEM_CACTVS_COMPLEXITY>
72.6

> <PUBCHEM_CACTVS_HBOND_ACCEPTOR>
1

> <PUBCHEM_CACTVS_HBOND_DONOR>
1

> <PUBCHEM_CACTVS_ROTATABLE_BOND>
1

> <PUBCHEM_CACTVS_SUBSKEYS>
AAADceByAAAAAAAAAAAAAAAAAAAAAAAAAAAwAAAAAAAAAAAAAAAAHAAQAAAADSjBAAQCAALAAAAAAAAAAAAAAAAAAAAAAIAIAAAAAAIAgAAEAAAAEAAAAAEQgAAOAAAAAAAAAAAQAAAAAAAAAAAAAAAAAA==

> <PUBCHEM_IUPAC_OPENEYE_NAME>
N,4-dimethylcyclohexanamine

> <PUBCHEM_IUPAC_CAS_NAME>
N,4-dimethyl-1-cyclohexanamine

> <PUBCHEM_IUPAC_NAME>
N,4-dimethylcyclohexan-1-amine

> <PUBCHEM_IUPAC_SYSTEMATIC_NAME>
N,4-dimethylcyclohexan-1-amine

> <PUBCHEM_IUPAC_TRADITIONAL_NAME>
methyl-(4-methylcyclohexyl)amine

> <PUBCHEM_IUPAC_INCHI>
InChI=1S/C8H17N/c1-7-3-5-8(9-2)6-4-7/h7-9H,3-6H2,1-2H3

> <PUBCHEM_IUPAC_INCHIKEY>
YBPHGVBAJQGYDH-UHFFFAOYSA-N

> <PUBCHEM_XLOGP3>
2

> <PUBCHEM_EXACT_MASS>
127.1361

> <PUBCHEM_MOLECULAR_FORMULA>
C8H17N

> <PUBCHEM_MOLECULAR_WEIGHT>
127.22728

> <PUBCHEM_OPENEYE_CAN_SMILES>
CC1CCC(CC1)NC

> <PUBCHEM_OPENEYE_ISO_SMILES>
CC1CCC(CC1)NC

> <PUBCHEM_CACTVS_TPSA>
12

> <PUBCHEM_MONOISOTOPIC_WEIGHT>
127.1361

> <PUBCHEM_TOTAL_CHARGE>
0

> <PUBCHEM_HEAVY_ATOM_COUNT>
9

> <PUBCHEM_ATOM_DEF_STEREO_COUNT>
0

> <PUBCHEM_ATOM_UDEF_STEREO_COUNT>
0

> <PUBCHEM_BOND_DEF_STEREO_COUNT>
0

> <PUBCHEM_BOND_UDEF_STEREO_COUNT>
0

> <PUBCHEM_ISOTOPIC_ATOM_COUNT>
0

> <PUBCHEM_COMPONENT_COUNT>
1

> <PUBCHEM_CACTVS_TAUTO_COUNT>
1

> <PUBCHEM_COORDINATE_TYPE>
1
5
255

$$$$
4962276
  -OEChem-11301216572D

 19 19  0     0  0  0  0  0  0999 V2000
    5.4641    2.5000    0.0000 Br  0  0  0  0  0  0  0  0  0  0  0  0
    2.0000   -0.5000    0.0000 Cl  0  0  0  0  0  0  0  0  0  0  0  0
    5.4641   -2.5000    0.0000 Cl  0  0  0  0  0  0  0  0  0  0  0  0
    3.7320    0.5000    0.0000 O   0  0  0  0  0  0  0  0  0  0  0  0
    3.7320   -0.5000    0.0000 C   0  0  0  0  0  0  0  0  0  0  0  0
    4.5981    1.0000    0.0000 C   0  0  0  0  0  0  0  0  0  0  0  0
    2.8660   -1.0000    0.0000 C   0  0  0  0  0  0  0  0  0  0  0  0
    4.5981   -1.0000    0.0000 C   0  0  0  0  0  0  0  0  0  0  0  0
    4.5981    2.0000    0.0000 C   0  0  0  0  0  0  0  0  0  0  0  0
    4.5981   -2.0000    0.0000 C   0  0  0  0  0  0  0  0  0  0  0  0
    2.8660   -2.0000    0.0000 C   0  0  0  0  0  0  0  0  0  0  0  0
    3.7320   -2.5000    0.0000 C   0  0  0  0  0  0  0  0  0  0  0  0
    4.8101    0.4174    0.0000 H   0  0  0  0  0  0  0  0  0  0  0  0
    5.2087    1.1077    0.0000 H   0  0  0  0  0  0  0  0  0  0  0  0
    5.1350   -0.6900    0.0000 H   0  0  0  0  0  0  0  0  0  0  0  0
    4.3860    2.5826    0.0000 H   0  0  0  0  0  0  0  0  0  0  0  0
    3.9875    1.8923    0.0000 H   0  0  0  0  0  0  0  0  0  0  0  0
    2.3291   -2.3100    0.0000 H   0  0  0  0  0  0  0  0  0  0  0  0
    3.7320   -3.1200    0.0000 H   0  0  0  0  0  0  0  0  0  0  0  0
  1  9  1  0  0  0  0
  2  7  1  0  0  0  0
  3 10  1  0  0  0  0
  4  5  1  0  0  0  0
  4  6  1  0  0  0  0
  5  7  2  0  0  0  0
  5  8  1  0  0  0  0
  6  9  1  0  0  0  0
  6 13  1  0  0  0  0
  6 14  1  0  0  0  0
  7 11  1  0  0  0  0
  8 10  2  0  0  0  0
  8 15  1  0  0  0  0
  9 16  1  0  0  0  0
  9 17  1  0  0  0  0
 10 12  1  0  0  0  0
 11 12  2  0  0  0  0
 11 18  1  0  0  0  0
 12 19  1  0  0  0  0
M  END
> <PUBCHEM_COMPOUND_CID>
4962276

> <PUBCHEM_COMPOUND_CANONICALIZED>
1

> <PUBCHEM_CACTVS_COMPLEXITY>
134

> <PUBCHEM_CACTVS_HBOND_ACCEPTOR>
1

> <PUBCHEM_CACTVS_HBOND_DONOR>
0

> <PUBCHEM_CACTVS_ROTATABLE_BOND>
3

> <PUBCHEM_CACTVS_SUBSKEYS>
AAADcYBwIAAGEAAAAAAAAAAAAAAAAAAAAAAwAAAAAAAAAAABAAAAGgJAAAABSAagkCIwBoAABACAACBCAAACCAAgJUAIiAAGC4gMJiOFMxqCOCCkwBEIqAeAQAAAAAAQAQAACAAAACACAAAQAAAAAAAAAA==

> <PUBCHEM_IUPAC_OPENEYE_NAME>
2-(2-bromoethoxy)-1,4-dichloro-benzene

> <PUBCHEM_IUPAC_CAS_NAME>
2-(2-bromoethoxy)-1,4-dichlorobenzene

> <PUBCHEM_IUPAC_NAME>
2-(2-bromoethoxy)-1,4-dichlorobenzene

> <PUBCHEM_IUPAC_SYSTEMATIC_NAME>
2-(2-bromoethyloxy)-1,4-bis(chloranyl)benzene

> <PUBCHEM_IUPAC_TRADITIONAL_NAME>
2-(2-bromoethoxy)-1,4-dichloro-benzene

> <PUBCHEM_IUPAC_INCHI>
InChI=1S/C8H7BrCl2O/c9-3-4-12-8-5-6(10)1-2-7(8)11/h1-2,5H,3-4H2

> <PUBCHEM_IUPAC_INCHIKEY>
JFOWYGCPBNNSHQ-UHFFFAOYSA-N

> <PUBCHEM_XLOGP3>
4.1

> <PUBCHEM_EXACT_MASS>
267.905732

> <PUBCHEM_MOLECULAR_FORMULA>
C8H7BrCl2O

> <PUBCHEM_MOLECULAR_WEIGHT>
269.95058

> <PUBCHEM_OPENEYE_CAN_SMILES>
C1=CC(=C(C=C1Cl)OCCBr)Cl

> <PUBCHEM_OPENEYE_ISO_SMILES>
C1=CC(=C(C=C1Cl)OCCBr)Cl

> <PUBCHEM_CACTVS_TPSA>
9.2

> <PUBCHEM_MONOISOTOPIC_WEIGHT>
267.905732

> <PUBCHEM_TOTAL_CHARGE>
0

> <PUBCHEM_HEAVY_ATOM_COUNT>
12

> <PUBCHEM_ATOM_DEF_STEREO_COUNT>
0

> <PUBCHEM_ATOM_UDEF_STEREO_COUNT>
0

> <PUBCHEM_BOND_DEF_STEREO_COUNT>
0

> <PUBCHEM_BOND_UDEF_STEREO_COUNT>
0

> <PUBCHEM_ISOTOPIC_ATOM_COUNT>
0

> <PUBCHEM_COMPONENT_COUNT>
1

> <PUBCHEM_CACTVS_TAUTO_COUNT>
1

> <PUBCHEM_COORDINATE_TYPE>
1
5
255

> <PUBCHEM_BONDANNOTATIONS>
10  12  8
11  12  8
5  7  8
5  8  8
7  11  8
8  10  8

$$$$
4974066
  -OEChem-11301216572D

 45 47  0     0  0  0  0  0  0999 V2000
    2.0000   -2.3415    0.0000 Cl  0  0  0  0  0  0  0  0  0  0  0  0
    8.7905   -0.9676    0.0000 O   0  0  0  0  0  0  0  0  0  0  0  0
    5.5443   -4.1462    0.0000 N   0  0  0  0  0  0  0  0  0  0  0  0
    7.1441   -0.4295    0.0000 N   0  0  0  0  0  0  0  0  0  0  0  0
    5.5443   -2.5368    0.0000 C   0  0  0  0  0  0  0  0  0  0  0  0
    5.8550   -1.5862    0.0000 C   0  0  0  0  0  0  0  0  0  0  0  0
    4.5981   -2.8415    0.0000 C   0  0  0  0  0  0  0  0  0  0  0  0
    6.8335   -1.3800    0.0000 C   0  0  0  0  0  0  0  0  0  0  0  0
    4.5981   -3.8415    0.0000 C   0  0  0  0  0  0  0  0  0  0  0  0
    6.1279   -3.3415    0.0000 C   0  0  0  0  0  0  0  0  0  0  0  0
    8.4333    0.7272    0.0000 C   0  0  0  0  0  0  0  0  0  0  0  0
    9.4118    0.9335    0.0000 C   0  0  0  0  0  0  0  0  0  0  0  0
    3.7320   -2.3415    0.0000 C   0  0  0  0  0  0  0  0  0  0  0  0
    8.1226   -0.2233    0.0000 C   0  0  0  0  0  0  0  0  0  0  0  0
    9.7225    1.8840    0.0000 C   0  0  0  0  0  0  0  0  0  0  0  0
    3.7320   -4.3415    0.0000 C   0  0  0  0  0  0  0  0  0  0  0  0
    2.8660   -2.8415    0.0000 C   0  0  0  0  0  0  0  0  0  0  0  0
    2.8660   -3.8415    0.0000 C   0  0  0  0  0  0  0  0  0  0  0  0
    9.0546    2.6283    0.0000 C   0  0  0  0  0  0  0  0  0  0  0  0
   10.7010    2.0902    0.0000 C   0  0  0  0  0  0  0  0  0  0  0  0
   10.3438    3.7850    0.0000 C   0  0  0  0  0  0  0  0  0  0  0  0
    9.3653    3.5788    0.0000 C   0  0  0  0  0  0  0  0  0  0  0  0
   11.0116    3.0407    0.0000 C   0  0  0  0  0  0  0  0  0  0  0  0
   10.6545    4.7355    0.0000 C   0  0  0  0  0  0  0  0  0  0  0  0
    5.8344   -0.9666    0.0000 H   0  0  0  0  0  0  0  0  0  0  0  0
    5.2411   -1.4989    0.0000 H   0  0  0  0  0  0  0  0  0  0  0  0
    6.8540   -1.9997    0.0000 H   0  0  0  0  0  0  0  0  0  0  0  0
    7.4473   -1.4674    0.0000 H   0  0  0  0  0  0  0  0  0  0  0  0
    6.7479   -3.3415    0.0000 H   0  0  0  0  0  0  0  0  0  0  0  0
    5.7369   -4.7355    0.0000 H   0  0  0  0  0  0  0  0  0  0  0  0
    8.4127    1.3469    0.0000 H   0  0  0  0  0  0  0  0  0  0  0  0
    7.8195    0.8146    0.0000 H   0  0  0  0  0  0  0  0  0  0  0  0
    9.4324    0.3138    0.0000 H   0  0  0  0  0  0  0  0  0  0  0  0
   10.0256    0.8461    0.0000 H   0  0  0  0  0  0  0  0  0  0  0  0
    6.7301    0.0320    0.0000 H   0  0  0  0  0  0  0  0  0  0  0  0
    3.7320   -1.7215    0.0000 H   0  0  0  0  0  0  0  0  0  0  0  0
    3.7320   -4.9615    0.0000 H   0  0  0  0  0  0  0  0  0  0  0  0
    2.3291   -4.1515    0.0000 H   0  0  0  0  0  0  0  0  0  0  0  0
    8.4480    2.5004    0.0000 H   0  0  0  0  0  0  0  0  0  0  0  0
   11.1150    1.6287    0.0000 H   0  0  0  0  0  0  0  0  0  0  0  0
    8.9512    4.0403    0.0000 H   0  0  0  0  0  0  0  0  0  0  0  0
   11.6183    3.1686    0.0000 H   0  0  0  0  0  0  0  0  0  0  0  0
   11.2438    4.5429    0.0000 H   0  0  0  0  0  0  0  0  0  0  0  0
   10.8471    5.3249    0.0000 H   0  0  0  0  0  0  0  0  0  0  0  0
   10.0651    4.9281    0.0000 H   0  0  0  0  0  0  0  0  0  0  0  0
  1 17  1  0  0  0  0
  2 14  2  0  0  0  0
  3  9  1  0  0  0  0
  3 10  1  0  0  0  0
  3 30  1  0  0  0  0
  4  8  1  0  0  0  0
  4 14  1  0  0  0  0
  4 35  1  0  0  0  0
  5  6  1  0  0  0  0
  5  7  1  0  0  0  0
  5 10  2  0  0  0  0
  6  8  1  0  0  0  0
  6 25  1  0  0  0  0
  6 26  1  0  0  0  0
  7  9  2  0  0  0  0
  7 13  1  0  0  0  0
  8 27  1  0  0  0  0
  8 28  1  0  0  0  0
  9 16  1  0  0  0  0
 10 29  1  0  0  0  0
 11 12  1  0  0  0  0
 11 14  1  0  0  0  0
 11 31  1  0  0  0  0
 11 32  1  0  0  0  0
 12 15  1  0  0  0  0
 12 33  1  0  0  0  0
 12 34  1  0  0  0  0
 13 17  2  0  0  0  0
 13 36  1  0  0  0  0
 15 19  2  0  0  0  0
 15 20  1  0  0  0  0
 16 18  2  0  0  0  0
 16 37  1  0  0  0  0
 17 18  1  0  0  0  0
 18 38  1  0  0  0  0
 19 22  1  0  0  0  0
 19 39  1  0  0  0  0
 20 23  2  0  0  0  0
 20 40  1  0  0  0  0
 21 22  2  0  0  0  0
 21 23  1  0  0  0  0
 21 24  1  0  0  0  0
 22 41  1  0  0  0  0
 23 42  1  0  0  0  0
 24 43  1  0  0  0  0
 24 44  1  0  0  0  0
 24 45  1  0  0  0  0
M  END
> <PUBCHEM_COMPOUND_CID>
4974066

> <PUBCHEM_COMPOUND_CANONICALIZED>
1

> <PUBCHEM_CACTVS_COMPLEXITY>
408

> <PUBCHEM_CACTVS_HBOND_ACCEPTOR>
1

> <PUBCHEM_CACTVS_HBOND_DONOR>
2

> <PUBCHEM_CACTVS_ROTATABLE_BOND>
6

> <PUBCHEM_CACTVS_SUBSKEYS>
AAADceB7IAAEAAAAAAAAAAAAAAAAAWAAAAAwYAAAAAAAAFgB9AAAHgIQAAAADArBniQ+wPLJkACoAzV3VACCgCAxByAI2aE4ZpgIIPLBk5GEIAhglgDIyAcYiMCOwABAIAACAACAAIBAAAQAAAAAAAAAAA==

> <PUBCHEM_IUPAC_OPENEYE_NAME>
N-[2-(5-chloro-1H-indol-3-yl)ethyl]-3-(p-tolyl)propanamide

> <PUBCHEM_IUPAC_CAS_NAME>
N-[2-(5-chloro-1H-indol-3-yl)ethyl]-3-(4-methylphenyl)propanamide

> <PUBCHEM_IUPAC_NAME>
N-[2-(5-chloro-1H-indol-3-yl)ethyl]-3-(4-methylphenyl)propanamide

> <PUBCHEM_IUPAC_SYSTEMATIC_NAME>
N-[2-(5-chloranyl-1H-indol-3-yl)ethyl]-3-(4-methylphenyl)propanamide

> <PUBCHEM_IUPAC_TRADITIONAL_NAME>
N-[2-(5-chloro-1H-indol-3-yl)ethyl]-3-(p-tolyl)propionamide

> <PUBCHEM_IUPAC_INCHI>
InChI=1S/C20H21ClN2O/c1-14-2-4-15(5-3-14)6-9-20(24)22-11-10-16-13-23-19-8-7-17(21)12-18(16)19/h2-5,7-8,12-13,23H,6,9-11H2,1H3,(H,22,24)

> <PUBCHEM_IUPAC_INCHIKEY>
PLUSCGCIOISCQG-UHFFFAOYSA-N

> <PUBCHEM_XLOGP3>
3.7

> <PUBCHEM_EXACT_MASS>
340.134241

> <PUBCHEM_MOLECULAR_FORMULA>
C20H21ClN2O

> <PUBCHEM_MOLECULAR_WEIGHT>
340.84654

> <PUBCHEM_OPENEYE_CAN_SMILES>
CC1=CC=C(C=C1)CCC(=O)NCCC2=CNC3=C2C=C(C=C3)Cl

> <PUBCHEM_OPENEYE_ISO_SMILES>
CC1=CC=C(C=C1)CCC(=O)NCCC2=CNC3=C2C=C(C=C3)Cl

> <PUBCHEM_CACTVS_TPSA>
44.9

> <PUBCHEM_MONOISOTOPIC_WEIGHT>
340.134241

> <PUBCHEM_TOTAL_CHARGE>
0

> <PUBCHEM_HEAVY_ATOM_COUNT>
24

> <PUBCHEM_ATOM_DEF_STEREO_COUNT>
0

> <PUBCHEM_ATOM_UDEF_STEREO_COUNT>
0

> <PUBCHEM_BOND_DEF_STEREO_COUNT>
0

> <PUBCHEM_BOND_UDEF_STEREO_COUNT>
0

> <PUBCHEM_ISOTOPIC_ATOM_COUNT>
0

> <PUBCHEM_COMPONENT_COUNT>
1

> <PUBCHEM_CACTVS_TAUTO_COUNT>
2

> <PUBCHEM_COORDINATE_TYPE>
1
5
255

> <PUBCHEM_BONDANNOTATIONS>
13  17  8
15  19  8
15  20  8
16  18  8
17  18  8
19  22  8
20  23  8
21  22  8
21  23  8
3  10  8
3  9  8
5  10  8
5  7  8
7  13  8
7  9  8
9  16  8

$$$$
4974315
  -OEChem-11301216572D

 39 43  0     0  0  0  0  0  0999 V2000
    3.6784   -0.3718    0.0000 N   0  0  0  0  0  0  0  0  0  0  0  0
    4.8164    0.7663    0.0000 N   0  0  0  0  0  0  0  0  0  0  0  0
    5.3672   -1.9678    0.0000 C   0  0  0  0  0  0  0  0  0  0  0  0
    6.0582   -0.0844    0.0000 C   0  0  0  0  0  0  0  0  0  0  0  0
    6.8944   -1.5327    0.0000 C   0  0  0  0  0  0  0  0  0  0  0  0
    5.2220   -1.5327    0.0000 C   0  0  0  0  0  0  0  0  0  0  0  0
    5.3672   -0.9225    0.0000 C   0  0  0  0  0  0  0  0  0  0  0  0
    6.8944   -0.5672    0.0000 C   0  0  0  0  0  0  0  0  0  0  0  0
    6.2728   -2.4446    0.0000 C   0  0  0  0  0  0  0  0  0  0  0  0
    5.2220   -0.5672    0.0000 C   0  0  0  0  0  0  0  0  0  0  0  0
    4.3852   -2.0155    0.0000 C   0  0  0  0  0  0  0  0  0  0  0  0
    6.0582   -1.8355    0.0000 C   0  0  0  0  0  0  0  0  0  0  0  0
    4.6601   -0.2154    0.0000 C   0  0  0  0  0  0  0  0  0  0  0  0
    3.2247    0.5128    0.0000 C   0  0  0  0  0  0  0  0  0  0  0  0
    3.9318    1.2199    0.0000 C   0  0  0  0  0  0  0  0  0  0  0  0
    2.2588    0.7716    0.0000 C   0  0  0  0  0  0  0  0  0  0  0  0
    3.6730    2.1858    0.0000 C   0  0  0  0  0  0  0  0  0  0  0  0
    2.0000    1.7375    0.0000 C   0  0  0  0  0  0  0  0  0  0  0  0
    2.7071    2.4446    0.0000 C   0  0  0  0  0  0  0  0  0  0  0  0
    6.0582    0.5356    0.0000 H   0  0  0  0  0  0  0  0  0  0  0  0
    5.8980   -1.6474    0.0000 H   0  0  0  0  0  0  0  0  0  0  0  0
    4.6851   -1.2226    0.0000 H   0  0  0  0  0  0  0  0  0  0  0  0
    7.4869   -1.7154    0.0000 H   0  0  0  0  0  0  0  0  0  0  0  0
    4.7944   -1.1598    0.0000 H   0  0  0  0  0  0  0  0  0  0  0  0
    3.9040   -1.6246    0.0000 H   0  0  0  0  0  0  0  0  0  0  0  0
    4.1921   -2.6046    0.0000 H   0  0  0  0  0  0  0  0  0  0  0  0
    5.0100    0.0154    0.0000 H   0  0  0  0  0  0  0  0  0  0  0  0
    4.6114   -0.6748    0.0000 H   0  0  0  0  0  0  0  0  0  0  0  0
    5.9634   -2.9819    0.0000 H   0  0  0  0  0  0  0  0  0  0  0  0
    6.7980   -2.7742    0.0000 H   0  0  0  0  0  0  0  0  0  0  0  0
    7.5050   -0.6748    0.0000 H   0  0  0  0  0  0  0  0  0  0  0  0
    7.1065    0.0154    0.0000 H   0  0  0  0  0  0  0  0  0  0  0  0
    5.6883   -2.3330    0.0000 H   0  0  0  0  0  0  0  0  0  0  0  0
    6.4282   -2.3330    0.0000 H   0  0  0  0  0  0  0  0  0  0  0  0
    3.3978   -0.9247    0.0000 H   0  0  0  0  0  0  0  0  0  0  0  0
    1.8204    0.3332    0.0000 H   0  0  0  0  0  0  0  0  0  0  0  0
    4.1114    2.6242    0.0000 H   0  0  0  0  0  0  0  0  0  0  0  0
    1.4011    1.8980    0.0000 H   0  0  0  0  0  0  0  0  0  0  0  0
    2.5466    3.0435    0.0000 H   0  0  0  0  0  0  0  0  0  0  0  0
  1 13  1  0  0  0  0
  1 14  1  0  0  0  0
  1 35  1  0  0  0  0
  2 13  2  0  0  0  0
  2 15  1  0  0  0  0
  3  7  1  0  0  0  0
  3  9  1  0  0  0  0
  3 11  1  0  0  0  0
  3 21  1  0  0  0  0
  4  7  1  0  0  0  0
  4  8  1  0  0  0  0
  4 10  1  0  0  0  0
  4 20  1  0  0  0  0
  5  8  1  0  0  0  0
  5  9  1  0  0  0  0
  5 12  1  0  0  0  0
  5 23  1  0  0  0  0
  6 10  1  0  0  0  0
  6 11  1  0  0  0  0
  6 12  1  0  0  0  0
  6 22  1  0  0  0  0
  7 13  1  0  0  0  0
  7 24  1  0  0  0  0
  8 31  1  0  0  0  0
  8 32  1  0  0  0  0
  9 29  1  0  0  0  0
  9 30  1  0  0  0  0
 10 27  1  0  0  0  0
 10 28  1  0  0  0  0
 11 25  1  0  0  0  0
 11 26  1  0  0  0  0
 12 33  1  0  0  0  0
 12 34  1  0  0  0  0
 14 15  1  0  0  0  0
 14 16  2  0  0  0  0
 15 17  2  0  0  0  0
 16 18  1  0  0  0  0
 16 36  1  0  0  0  0
 17 19  1  0  0  0  0
 17 37  1  0  0  0  0
 18 19  2  0  0  0  0
 18 38  1  0  0  0  0
 19 39  1  0  0  0  0
M  END
> <PUBCHEM_COMPOUND_CID>
4974315

> <PUBCHEM_COMPOUND_CANONICALIZED>
1

> <PUBCHEM_CACTVS_COMPLEXITY>
338

> <PUBCHEM_CACTVS_HBOND_ACCEPTOR>
1

> <PUBCHEM_CACTVS_HBOND_DONOR>
1

> <PUBCHEM_CACTVS_ROTATABLE_BOND>
1

> <PUBCHEM_CACTVS_SUBSKEYS>
AAADceB7AAAAAAAAAAAAAAAAAAAAAWAAAAAwYMGDAAAAAFgB8AAAHAAQAAAADQiBFwAx0LbJkACgASZiZACCgC2hEqAJmSAwdJiIaKLAmZGUIAhokALIyCcQgMAOgAAAAAAAACCAAAQAACAAQAAAAAAAAA==

> <PUBCHEM_IUPAC_OPENEYE_NAME>
2-(2-adamantyl)-1H-benzimidazole

> <PUBCHEM_IUPAC_CAS_NAME>
2-(2-adamantyl)-1H-benzimidazole

> <PUBCHEM_IUPAC_NAME>
2-(2-adamantyl)-1H-benzimidazole

> <PUBCHEM_IUPAC_SYSTEMATIC_NAME>
2-(2-adamantyl)-1H-benzimidazole

> <PUBCHEM_IUPAC_TRADITIONAL_NAME>
2-(2-adamantyl)-1H-benzimidazole

> <PUBCHEM_IUPAC_INCHI>
InChI=1S/C17H20N2/c1-2-4-15-14(3-1)18-17(19-15)16-12-6-10-5-11(8-12)9-13(16)7-10/h1-4,10-13,16H,5-9H2,(H,18,19)

> <PUBCHEM_IUPAC_INCHIKEY>
UHUCPOSAGADTCY-UHFFFAOYSA-N

> <PUBCHEM_XLOGP3>
4.9

> <PUBCHEM_EXACT_MASS>
252.162649

> <PUBCHEM_MOLECULAR_FORMULA>
C17H20N2

> <PUBCHEM_MOLECULAR_WEIGHT>
252.3541

> <PUBCHEM_OPENEYE_CAN_SMILES>
C1C2CC3CC1CC(C2)C3C4=NC5=CC=CC=C5N4

> <PUBCHEM_OPENEYE_ISO_SMILES>
C1C2CC3CC1CC(C2)C3C4=NC5=CC=CC=C5N4

> <PUBCHEM_CACTVS_TPSA>
28.7

> <PUBCHEM_MONOISOTOPIC_WEIGHT>
252.162649

> <PUBCHEM_TOTAL_CHARGE>
0

> <PUBCHEM_HEAVY_ATOM_COUNT>
19

> <PUBCHEM_ATOM_DEF_STEREO_COUNT>
0

> <PUBCHEM_ATOM_UDEF_STEREO_COUNT>
0

> <PUBCHEM_BOND_DEF_STEREO_COUNT>
0

> <PUBCHEM_BOND_UDEF_STEREO_COUNT>
0

> <PUBCHEM_ISOTOPIC_ATOM_COUNT>
0

> <PUBCHEM_COMPONENT_COUNT>
1

> <PUBCHEM_CACTVS_TAUTO_COUNT>
1

> <PUBCHEM_COORDINATE_TYPE>
1
5
255

> <PUBCHEM_BONDANNOTATIONS>
1  13  8
1  14  8
14  15  8
14  16  8
15  17  8
16  18  8
17  19  8
18  19  8
2  13  8
2  15  8

$$$$
