30779148
  -OEChem-11301217432D

 41 43  0     0  0  0  0  0  0999 V2000
    7.9244    0.3551    0.0000 O   0  0  0  0  0  0  0  0  0  0  0  0
    4.6783   -2.8236    0.0000 N   0  0  0  0  0  0  0  0  0  0  0  0
    7.5673    2.0499    0.0000 N   0  0  0  0  0  0  0  0  0  0  0  0
    4.9889   -0.2636    0.0000 C   0  0  0  0  0  0  0  0  0  0  0  0
    4.6783   -1.2141    0.0000 C   0  0  0  0  0  0  0  0  0  0  0  0
    5.9674   -0.0573    0.0000 C   0  0  0  0  0  0  0  0  0  0  0  0
    3.7320   -1.5188    0.0000 C   0  0  0  0  0  0  0  0  0  0  0  0
    3.7320   -2.5188    0.0000 C   0  0  0  0  0  0  0  0  0  0  0  0
    6.2781    0.8932    0.0000 C   0  0  0  0  0  0  0  0  0  0  0  0
    5.2619   -2.0188    0.0000 C   0  0  0  0  0  0  0  0  0  0  0  0
    2.8660   -1.0188    0.0000 C   0  0  0  0  0  0  0  0  0  0  0  0
    2.8660   -3.0188    0.0000 C   0  0  0  0  0  0  0  0  0  0  0  0
    7.2566    1.0994    0.0000 C   0  0  0  0  0  0  0  0  0  0  0  0
    2.0000   -1.5188    0.0000 C   0  0  0  0  0  0  0  0  0  0  0  0
    2.0000   -2.5188    0.0000 C   0  0  0  0  0  0  0  0  0  0  0  0
    8.5458    2.2561    0.0000 C   0  0  0  0  0  0  0  0  0  0  0  0
    9.2136    1.5118    0.0000 C   0  0  0  0  0  0  0  0  0  0  0  0
    8.8564    3.2066    0.0000 C   0  0  0  0  0  0  0  0  0  0  0  0
   10.1921    1.7180    0.0000 C   0  0  0  0  0  0  0  0  0  0  0  0
    9.8349    3.4129    0.0000 C   0  0  0  0  0  0  0  0  0  0  0  0
   10.5028    2.6686    0.0000 C   0  0  0  0  0  0  0  0  0  0  0  0
   10.8600    0.9737    0.0000 C   0  0  0  0  0  0  0  0  0  0  0  0
   11.5278    0.2294    0.0000 C   0  0  0  0  0  0  0  0  0  0  0  0
    4.9684    0.3561    0.0000 H   0  0  0  0  0  0  0  0  0  0  0  0
    4.3751   -0.1762    0.0000 H   0  0  0  0  0  0  0  0  0  0  0  0
    5.9880   -0.6770    0.0000 H   0  0  0  0  0  0  0  0  0  0  0  0
    6.5812   -0.1447    0.0000 H   0  0  0  0  0  0  0  0  0  0  0  0
    6.2575    1.5128    0.0000 H   0  0  0  0  0  0  0  0  0  0  0  0
    5.6643    0.9805    0.0000 H   0  0  0  0  0  0  0  0  0  0  0  0
    5.8819   -2.0188    0.0000 H   0  0  0  0  0  0  0  0  0  0  0  0
    4.8709   -3.4129    0.0000 H   0  0  0  0  0  0  0  0  0  0  0  0
    2.8660   -0.3988    0.0000 H   0  0  0  0  0  0  0  0  0  0  0  0
    2.8660   -3.6388    0.0000 H   0  0  0  0  0  0  0  0  0  0  0  0
    1.4631   -1.2088    0.0000 H   0  0  0  0  0  0  0  0  0  0  0  0
    1.4631   -2.8288    0.0000 H   0  0  0  0  0  0  0  0  0  0  0  0
    7.1532    2.5114    0.0000 H   0  0  0  0  0  0  0  0  0  0  0  0
    9.0210    0.9225    0.0000 H   0  0  0  0  0  0  0  0  0  0  0  0
    8.4424    3.6681    0.0000 H   0  0  0  0  0  0  0  0  0  0  0  0
   10.0276    4.0022    0.0000 H   0  0  0  0  0  0  0  0  0  0  0  0
   11.1095    2.7964    0.0000 H   0  0  0  0  0  0  0  0  0  0  0  0
   11.9419   -0.2320    0.0000 H   0  0  0  0  0  0  0  0  0  0  0  0
  1 13  2  0  0  0  0
  2  8  1  0  0  0  0
  2 10  1  0  0  0  0
  2 31  1  0  0  0  0
  3 13  1  0  0  0  0
  3 16  1  0  0  0  0
  3 36  1  0  0  0  0
  4  5  1  0  0  0  0
  4  6  1  0  0  0  0
  4 24  1  0  0  0  0
  4 25  1  0  0  0  0
  5  7  1  0  0  0  0
  5 10  2  0  0  0  0
  6  9  1  0  0  0  0
  6 26  1  0  0  0  0
  6 27  1  0  0  0  0
  7  8  1  0  0  0  0
  7 11  2  0  0  0  0
  8 12  2  0  0  0  0
  9 13  1  0  0  0  0
  9 28  1  0  0  0  0
  9 29  1  0  0  0  0
 10 30  1  0  0  0  0
 11 14  1  0  0  0  0
 11 32  1  0  0  0  0
 12 15  1  0  0  0  0
 12 33  1  0  0  0  0
 14 15  2  0  0  0  0
 14 34  1  0  0  0  0
 15 35  1  0  0  0  0
 16 17  1  0  0  0  0
 16 18  2  0  0  0  0
 17 19  2  0  0  0  0
 17 37  1  0  0  0  0
 18 20  1  0  0  0  0
 18 38  1  0  0  0  0
 19 21  1  0  0  0  0
 19 22  1  0  0  0  0
 20 21  2  0  0  0  0
 20 39  1  0  0  0  0
 21 40  1  0  0  0  0
 22 23  3  0  0  0  0
 23 41  1  0  0  0  0
M  END
> <PUBCHEM_COMPOUND_CID>
30779148

> <PUBCHEM_COMPOUND_CANONICALIZED>
1

> <PUBCHEM_CACTVS_COMPLEXITY>
452

> <PUBCHEM_CACTVS_HBOND_ACCEPTOR>
1

> <PUBCHEM_CACTVS_HBOND_DONOR>
2

> <PUBCHEM_CACTVS_ROTATABLE_BOND>
6

> <PUBCHEM_CACTVS_SUBSKEYS>
AAADceB7IAAAAAAAAAAAAAAAAAAAAWAAAAAwYAAAAAAAAFgB9AAAHgAQAAAADAjBngQ8wPLJkADoGzV3VAiCgCAxAiAI2aE4ZJgIIPLAkZGEIAhglADIyAcYiMCOgAAAQAACAAAAAACAAAQAAAAAAAAAAA==

> <PUBCHEM_IUPAC_OPENEYE_NAME>
N-(3-ethynylphenyl)-4-(1H-indol-3-yl)butanamide

> <PUBCHEM_IUPAC_CAS_NAME>
N-(3-ethynylphenyl)-4-(1H-indol-3-yl)butanamide

> <PUBCHEM_IUPAC_NAME>
N-(3-ethynylphenyl)-4-(1H-indol-3-yl)butanamide

> <PUBCHEM_IUPAC_SYSTEMATIC_NAME>
N-(3-ethynylphenyl)-4-(1H-indol-3-yl)butanamide

> <PUBCHEM_IUPAC_TRADITIONAL_NAME>
N-(3-ethynylphenyl)-4-(1H-indol-3-yl)butyramide

> <PUBCHEM_IUPAC_INCHI>
InChI=1S/C20H18N2O/c1-2-15-7-5-9-17(13-15)22-20(23)12-6-8-16-14-21-19-11-4-3-10-18(16)19/h1,3-5,7,9-11,13-14,21H,6,8,12H2,(H,22,23)

> <PUBCHEM_IUPAC_INCHIKEY>
QZVFCTASOBMAPY-UHFFFAOYSA-N

> <PUBCHEM_XLOGP3>
3.9

> <PUBCHEM_EXACT_MASS>
302.141913

> <PUBCHEM_MOLECULAR_FORMULA>
C20H18N2O

> <PUBCHEM_MOLECULAR_WEIGHT>
302.36972

> <PUBCHEM_OPENEYE_CAN_SMILES>
C#CC1=CC(=CC=C1)NC(=O)CCCC2=CNC3=CC=CC=C32

> <PUBCHEM_OPENEYE_ISO_SMILES>
C#CC1=CC(=CC=C1)NC(=O)CCCC2=CNC3=CC=CC=C32

> <PUBCHEM_CACTVS_TPSA>
44.9

> <PUBCHEM_MONOISOTOPIC_WEIGHT>
302.141913

> <PUBCHEM_TOTAL_CHARGE>
0

> <PUBCHEM_HEAVY_ATOM_COUNT>
23

> <PUBCHEM_ATOM_DEF_STEREO_COUNT>
0

> <PUBCHEM_ATOM_UDEF_STEREO_COUNT>
0

> <PUBCHEM_BOND_DEF_STEREO_COUNT>
0

> <PUBCHEM_BOND_UDEF_STEREO_COUNT>
0

> <PUBCHEM_ISOTOPIC_ATOM_COUNT>
0

> <PUBCHEM_COMPONENT_COUNT>
1

> <PUBCHEM_CACTVS_TAUTO_COUNT>
3

> <PUBCHEM_COORDINATE_TYPE>
1
5
255

> <PUBCHEM_BONDANNOTATIONS>
11  14  8
12  15  8
14  15  8
16  17  8
16  18  8
17  19  8
18  20  8
19  21  8
2  10  8
2  8  8
20  21  8
5  10  8
5  7  8
7  11  8
7  8  8
8  12  8

$$$$
30779180
  -OEChem-11301217432D

 32 33  0     0  0  0  0  0  0999 V2000
    8.5991    4.4050    0.0000 Br  0  0  0  0  0  0  0  0  0  0  0  0
    6.8671   -0.5950    0.0000 O   0  0  0  0  0  0  0  0  0  0  0  0
    5.1350   -0.5950    0.0000 N   0  0  0  0  0  0  0  0  0  0  0  0
    5.1350   -1.5950    0.0000 C   0  0  0  0  0  0  0  0  0  0  0  0
    6.8671    2.4050    0.0000 C   0  0  0  0  0  0  0  0  0  0  0  0
    4.2690   -2.0950    0.0000 C   0  0  0  0  0  0  0  0  0  0  0  0
    6.0010   -2.0950    0.0000 C   0  0  0  0  0  0  0  0  0  0  0  0
    6.8671    1.4050    0.0000 C   0  0  0  0  0  0  0  0  0  0  0  0
    7.7331    2.9050    0.0000 C   0  0  0  0  0  0  0  0  0  0  0  0
    6.0010    2.9050    0.0000 C   0  0  0  0  0  0  0  0  0  0  0  0
    4.2690   -3.0950    0.0000 C   0  0  0  0  0  0  0  0  0  0  0  0
    6.0010   -0.0950    0.0000 C   0  0  0  0  0  0  0  0  0  0  0  0
    6.0010    0.9050    0.0000 C   0  0  0  0  0  0  0  0  0  0  0  0
    6.0010   -3.0950    0.0000 C   0  0  0  0  0  0  0  0  0  0  0  0
    5.1350   -3.5950    0.0000 C   0  0  0  0  0  0  0  0  0  0  0  0
    7.7331    3.9050    0.0000 C   0  0  0  0  0  0  0  0  0  0  0  0
    6.0010    3.9050    0.0000 C   0  0  0  0  0  0  0  0  0  0  0  0
    6.8671    4.4050    0.0000 C   0  0  0  0  0  0  0  0  0  0  0  0
    3.4030   -3.5950    0.0000 C   0  0  0  0  0  0  0  0  0  0  0  0
    2.5369   -4.0950    0.0000 C   0  0  0  0  0  0  0  0  0  0  0  0
    3.7320   -1.7850    0.0000 H   0  0  0  0  0  0  0  0  0  0  0  0
    4.5981   -0.2850    0.0000 H   0  0  0  0  0  0  0  0  0  0  0  0
    6.5380   -1.7850    0.0000 H   0  0  0  0  0  0  0  0  0  0  0  0
    7.4040    1.0950    0.0000 H   0  0  0  0  0  0  0  0  0  0  0  0
    8.2700    2.5950    0.0000 H   0  0  0  0  0  0  0  0  0  0  0  0
    5.4641    2.5950    0.0000 H   0  0  0  0  0  0  0  0  0  0  0  0
    5.4641    1.2150    0.0000 H   0  0  0  0  0  0  0  0  0  0  0  0
    6.5380   -3.4050    0.0000 H   0  0  0  0  0  0  0  0  0  0  0  0
    5.1350   -4.2150    0.0000 H   0  0  0  0  0  0  0  0  0  0  0  0
    5.4641    4.2150    0.0000 H   0  0  0  0  0  0  0  0  0  0  0  0
    6.8671    5.0250    0.0000 H   0  0  0  0  0  0  0  0  0  0  0  0
    2.0000   -4.4050    0.0000 H   0  0  0  0  0  0  0  0  0  0  0  0
  1 16  1  0  0  0  0
  2 12  2  0  0  0  0
  3  4  1  0  0  0  0
  3 12  1  0  0  0  0
  3 22  1  0  0  0  0
  4  6  1  0  0  0  0
  4  7  2  0  0  0  0
  5  8  1  0  0  0  0
  5  9  2  0  0  0  0
  5 10  1  0  0  0  0
  6 11  2  0  0  0  0
  6 21  1  0  0  0  0
  7 14  1  0  0  0  0
  7 23  1  0  0  0  0
  8 13  2  0  0  0  0
  8 24  1  0  0  0  0
  9 16  1  0  0  0  0
  9 25  1  0  0  0  0
 10 17  2  0  0  0  0
 10 26  1  0  0  0  0
 11 15  1  0  0  0  0
 11 19  1  0  0  0  0
 12 13  1  0  0  0  0
 13 27  1  0  0  0  0
 14 15  2  0  0  0  0
 14 28  1  0  0  0  0
 15 29  1  0  0  0  0
 16 18  2  0  0  0  0
 17 18  1  0  0  0  0
 17 30  1  0  0  0  0
 18 31  1  0  0  0  0
 19 20  3  0  0  0  0
 20 32  1  0  0  0  0
M  END
> <PUBCHEM_COMPOUND_CID>
30779180

> <PUBCHEM_COMPOUND_CANONICALIZED>
1

> <PUBCHEM_CACTVS_COMPLEXITY>
409

> <PUBCHEM_CACTVS_HBOND_ACCEPTOR>
1

> <PUBCHEM_CACTVS_HBOND_DONOR>
1

> <PUBCHEM_CACTVS_ROTATABLE_BOND>
4

> <PUBCHEM_CACTVS_SUBSKEYS>
AAADccB6IAAAEAAAAAAAAAAAAAAAAAAAAAAwYAAAAAAAAAABQAAAHgBQAAABrAiBmAAwwILAAADIGiVSUAiCAAAhAgQIiAAAZOgIICLAkZGEIAhglADIy5cQgAAOAAAAUAAAAAAAAACgAAAAAAAAAAAAAA==

> <PUBCHEM_IUPAC_OPENEYE_NAME>
(E)-3-(3-bromophenyl)-N-(3-ethynylphenyl)prop-2-enamide

> <PUBCHEM_IUPAC_CAS_NAME>
(E)-3-(3-bromophenyl)-N-(3-ethynylphenyl)-2-propenamide

> <PUBCHEM_IUPAC_NAME>
(E)-3-(3-bromophenyl)-N-(3-ethynylphenyl)prop-2-enamide

> <PUBCHEM_IUPAC_SYSTEMATIC_NAME>
(E)-3-(3-bromophenyl)-N-(3-ethynylphenyl)prop-2-enamide

> <PUBCHEM_IUPAC_TRADITIONAL_NAME>
(E)-3-(3-bromophenyl)-N-(3-ethynylphenyl)acrylamide

> <PUBCHEM_IUPAC_INCHI>
InChI=1S/C17H12BrNO/c1-2-13-5-4-8-16(12-13)19-17(20)10-9-14-6-3-7-15(18)11-14/h1,3-12H,(H,19,20)/b10-9+

> <PUBCHEM_IUPAC_INCHIKEY>
YTNRDXVLCPCWEW-MDZDMXLPSA-N

> <PUBCHEM_XLOGP3>
4.5

> <PUBCHEM_EXACT_MASS>
325.010226

> <PUBCHEM_MOLECULAR_FORMULA>
C17H12BrNO

> <PUBCHEM_MOLECULAR_WEIGHT>
326.18728

> <PUBCHEM_OPENEYE_CAN_SMILES>
C#CC1=CC(=CC=C1)NC(=O)C=CC2=CC(=CC=C2)Br

> <PUBCHEM_OPENEYE_ISO_SMILES>
C#CC1=CC(=CC=C1)NC(=O)/C=C/C2=CC(=CC=C2)Br

> <PUBCHEM_CACTVS_TPSA>
29.1

> <PUBCHEM_MONOISOTOPIC_WEIGHT>
325.010226

> <PUBCHEM_TOTAL_CHARGE>
0

> <PUBCHEM_HEAVY_ATOM_COUNT>
20

> <PUBCHEM_ATOM_DEF_STEREO_COUNT>
0

> <PUBCHEM_ATOM_UDEF_STEREO_COUNT>
0

> <PUBCHEM_BOND_DEF_STEREO_COUNT>
1

> <PUBCHEM_BOND_UDEF_STEREO_COUNT>
0

> <PUBCHEM_ISOTOPIC_ATOM_COUNT>
0

> <PUBCHEM_COMPONENT_COUNT>
1

> <PUBCHEM_CACTVS_TAUTO_COUNT>
2

> <PUBCHEM_COORDINATE_TYPE>
1
5
255

> <PUBCHEM_BONDANNOTATIONS>
10  17  8
11  15  8
14  15  8
16  18  8
17  18  8
4  6  8
4  7  8
5  10  8
5  9  8
6  11  8
7  14  8
9  16  8

$$$$
30779304
  -OEChem-11301217432D

 38 39  0     0  0  0  0  0  0999 V2000
    6.8671   -1.3450    0.0000 O   0  0  0  0  0  0  0  0  0  0  0  0
    5.1350   -1.3450    0.0000 N   0  0  0  0  0  0  0  0  0  0  0  0
    6.8671    3.6550    0.0000 C   0  0  0  0  0  0  0  0  0  0  0  0
    6.8671    4.6550    0.0000 C   0  0  0  0  0  0  0  0  0  0  0  0
    6.8671    1.6550    0.0000 C   0  0  0  0  0  0  0  0  0  0  0  0
    6.0010    3.1550    0.0000 C   0  0  0  0  0  0  0  0  0  0  0  0
    7.7331    3.1550    0.0000 C   0  0  0  0  0  0  0  0  0  0  0  0
    6.0010    2.1550    0.0000 C   0  0  0  0  0  0  0  0  0  0  0  0
    7.7331    2.1550    0.0000 C   0  0  0  0  0  0  0  0  0  0  0  0
    7.7331    5.1550    0.0000 C   0  0  0  0  0  0  0  0  0  0  0  0
    6.8671    0.6550    0.0000 C   0  0  0  0  0  0  0  0  0  0  0  0
    5.1350   -2.3450    0.0000 C   0  0  0  0  0  0  0  0  0  0  0  0
    6.0010    0.1550    0.0000 C   0  0  0  0  0  0  0  0  0  0  0  0
    6.0010   -0.8450    0.0000 C   0  0  0  0  0  0  0  0  0  0  0  0
    4.2690   -2.8450    0.0000 C   0  0  0  0  0  0  0  0  0  0  0  0
    6.0010   -2.8450    0.0000 C   0  0  0  0  0  0  0  0  0  0  0  0
    4.2690   -3.8450    0.0000 C   0  0  0  0  0  0  0  0  0  0  0  0
    6.0010   -3.8450    0.0000 C   0  0  0  0  0  0  0  0  0  0  0  0
    5.1350   -4.3450    0.0000 C   0  0  0  0  0  0  0  0  0  0  0  0
    3.4030   -4.3450    0.0000 C   0  0  0  0  0  0  0  0  0  0  0  0
    2.5369   -4.8450    0.0000 C   0  0  0  0  0  0  0  0  0  0  0  0
    6.6550    5.2376    0.0000 H   0  0  0  0  0  0  0  0  0  0  0  0
    6.2565    4.5473    0.0000 H   0  0  0  0  0  0  0  0  0  0  0  0
    5.4641    3.4650    0.0000 H   0  0  0  0  0  0  0  0  0  0  0  0
    8.2700    3.4650    0.0000 H   0  0  0  0  0  0  0  0  0  0  0  0
    5.4641    1.8450    0.0000 H   0  0  0  0  0  0  0  0  0  0  0  0
    8.2700    1.8450    0.0000 H   0  0  0  0  0  0  0  0  0  0  0  0
    8.0431    4.6181    0.0000 H   0  0  0  0  0  0  0  0  0  0  0  0
    8.2700    5.4650    0.0000 H   0  0  0  0  0  0  0  0  0  0  0  0
    7.4231    5.6919    0.0000 H   0  0  0  0  0  0  0  0  0  0  0  0
    7.4040    0.3450    0.0000 H   0  0  0  0  0  0  0  0  0  0  0  0
    5.4641    0.4650    0.0000 H   0  0  0  0  0  0  0  0  0  0  0  0
    4.5981   -1.0350    0.0000 H   0  0  0  0  0  0  0  0  0  0  0  0
    3.7320   -2.5350    0.0000 H   0  0  0  0  0  0  0  0  0  0  0  0
    6.5380   -2.5350    0.0000 H   0  0  0  0  0  0  0  0  0  0  0  0
    6.5380   -4.1550    0.0000 H   0  0  0  0  0  0  0  0  0  0  0  0
    5.1350   -4.9650    0.0000 H   0  0  0  0  0  0  0  0  0  0  0  0
    2.0000   -5.1550    0.0000 H   0  0  0  0  0  0  0  0  0  0  0  0
  1 14  2  0  0  0  0
  2 12  1  0  0  0  0
  2 14  1  0  0  0  0
  2 33  1  0  0  0  0
  3  4  1  0  0  0  0
  3  6  2  0  0  0  0
  3  7  1  0  0  0  0
  4 10  1  0  0  0  0
  4 22  1  0  0  0  0
  4 23  1  0  0  0  0
  5  8  2  0  0  0  0
  5  9  1  0  0  0  0
  5 11  1  0  0  0  0
  6  8  1  0  0  0  0
  6 24  1  0  0  0  0
  7  9  2  0  0  0  0
  7 25  1  0  0  0  0
  8 26  1  0  0  0  0
  9 27  1  0  0  0  0
 10 28  1  0  0  0  0
 10 29  1  0  0  0  0
 10 30  1  0  0  0  0
 11 13  2  0  0  0  0
 11 31  1  0  0  0  0
 12 15  1  0  0  0  0
 12 16  2  0  0  0  0
 13 14  1  0  0  0  0
 13 32  1  0  0  0  0
 15 17  2  0  0  0  0
 15 34  1  0  0  0  0
 16 18  1  0  0  0  0
 16 35  1  0  0  0  0
 17 19  1  0  0  0  0
 17 20  1  0  0  0  0
 18 19  2  0  0  0  0
 18 36  1  0  0  0  0
 19 37  1  0  0  0  0
 20 21  3  0  0  0  0
 21 38  1  0  0  0  0
M  END
> <PUBCHEM_COMPOUND_CID>
30779304

> <PUBCHEM_COMPOUND_CANONICALIZED>
1

> <PUBCHEM_CACTVS_COMPLEXITY>
409

> <PUBCHEM_CACTVS_HBOND_ACCEPTOR>
1

> <PUBCHEM_CACTVS_HBOND_DONOR>
1

> <PUBCHEM_CACTVS_ROTATABLE_BOND>
5

> <PUBCHEM_CACTVS_SUBSKEYS>
AAADceB6IAAAAAAAAAAAAAAAAAAAAAAAAAAwYAAAAAAAAAABQAAAHgAQAAAADAiBmAAywILAAADIGiVSUAiCAAAhAgAIiAAAZMgIICLAkZGEIAhglADIyYcQgMAOQAAAQAAAAACAAACAAAAAAAAAAAAAAA==

> <PUBCHEM_IUPAC_OPENEYE_NAME>
(E)-3-(4-ethylphenyl)-N-(3-ethynylphenyl)prop-2-enamide

> <PUBCHEM_IUPAC_CAS_NAME>
(E)-3-(4-ethylphenyl)-N-(3-ethynylphenyl)-2-propenamide

> <PUBCHEM_IUPAC_NAME>
(E)-3-(4-ethylphenyl)-N-(3-ethynylphenyl)prop-2-enamide

> <PUBCHEM_IUPAC_SYSTEMATIC_NAME>
(E)-3-(4-ethylphenyl)-N-(3-ethynylphenyl)prop-2-enamide

> <PUBCHEM_IUPAC_TRADITIONAL_NAME>
(E)-3-(4-ethylphenyl)-N-(3-ethynylphenyl)acrylamide

> <PUBCHEM_IUPAC_INCHI>
InChI=1S/C19H17NO/c1-3-15-8-10-17(11-9-15)12-13-19(21)20-18-7-5-6-16(4-2)14-18/h2,5-14H,3H2,1H3,(H,20,21)/b13-12+

> <PUBCHEM_IUPAC_INCHIKEY>
CIRYOEPBXHVUSO-OUKQBFOZSA-N

> <PUBCHEM_XLOGP3>
4.7

> <PUBCHEM_EXACT_MASS>
275.131014

> <PUBCHEM_MOLECULAR_FORMULA>
C19H17NO

> <PUBCHEM_MOLECULAR_WEIGHT>
275.34438

> <PUBCHEM_OPENEYE_CAN_SMILES>
CCC1=CC=C(C=C1)C=CC(=O)NC2=CC=CC(=C2)C#C

> <PUBCHEM_OPENEYE_ISO_SMILES>
CCC1=CC=C(C=C1)/C=C/C(=O)NC2=CC=CC(=C2)C#C

> <PUBCHEM_CACTVS_TPSA>
29.1

> <PUBCHEM_MONOISOTOPIC_WEIGHT>
275.131014

> <PUBCHEM_TOTAL_CHARGE>
0

> <PUBCHEM_HEAVY_ATOM_COUNT>
21

> <PUBCHEM_ATOM_DEF_STEREO_COUNT>
0

> <PUBCHEM_ATOM_UDEF_STEREO_COUNT>
0

> <PUBCHEM_BOND_DEF_STEREO_COUNT>
1

> <PUBCHEM_BOND_UDEF_STEREO_COUNT>
0

> <PUBCHEM_ISOTOPIC_ATOM_COUNT>
0

> <PUBCHEM_COMPONENT_COUNT>
1

> <PUBCHEM_CACTVS_TAUTO_COUNT>
2

> <PUBCHEM_COORDINATE_TYPE>
1
5
255

> <PUBCHEM_BONDANNOTATIONS>
12  15  8
12  16  8
15  17  8
16  18  8
17  19  8
18  19  8
3  6  8
3  7  8
5  8  8
5  9  8
6  8  8
7  9  8

$$$$
30781002
  -OEChem-11301217432D

 38 39  0     0  0  0  0  0  0999 V2000
    5.4641    0.6830    0.0000 Cl  0  0  0  0  0  0  0  0  0  0  0  0
    2.8660    2.1830    0.0000 O   0  0  0  0  0  0  0  0  0  0  0  0
    2.8660   -2.8170    0.0000 N   0  3  0  0  0  0  0  0  0  0  0  0
    3.7321    0.6830    0.0000 N   0  0  0  0  0  0  0  0  0  0  0  0
    2.8660   -0.8170    0.0000 C   0  0  0  0  0  0  0  0  0  0  0  0
    2.0000   -1.3170    0.0000 C   0  0  0  0  0  0  0  0  0  0  0  0
    3.7321   -1.3170    0.0000 C   0  0  0  0  0  0  0  0  0  0  0  0
    2.0000   -2.3170    0.0000 C   0  0  0  0  0  0  0  0  0  0  0  0
    3.7321   -2.3170    0.0000 C   0  0  0  0  0  0  0  0  0  0  0  0
    2.8660    0.1830    0.0000 C   0  0  0  0  0  0  0  0  0  0  0  0
    2.3660   -3.6830    0.0000 C   0  0  0  0  0  0  0  0  0  0  0  0
    3.7321    1.6830    0.0000 C   0  0  0  0  0  0  0  0  0  0  0  0
    4.5981    2.1830    0.0000 C   0  0  0  0  0  0  0  0  0  0  0  0
    5.4641    1.6830    0.0000 C   0  0  0  0  0  0  0  0  0  0  0  0
    4.5981    3.1830    0.0000 C   0  0  0  0  0  0  0  0  0  0  0  0
    6.3301    2.1830    0.0000 C   0  0  0  0  0  0  0  0  0  0  0  0
    5.4641    3.6830    0.0000 C   0  0  0  0  0  0  0  0  0  0  0  0
    6.3301    3.1830    0.0000 C   0  0  0  0  0  0  0  0  0  0  0  0
    3.4030   -0.5070    0.0000 H   0  0  0  0  0  0  0  0  0  0  0  0
    3.1760   -3.3539    0.0000 H   0  0  0  0  0  0  0  0  0  0  0  0
    1.7880   -0.7344    0.0000 H   0  0  0  0  0  0  0  0  0  0  0  0
    1.3894   -1.4247    0.0000 H   0  0  0  0  0  0  0  0  0  0  0  0
    4.3426   -1.4247    0.0000 H   0  0  0  0  0  0  0  0  0  0  0  0
    3.9441   -0.7344    0.0000 H   0  0  0  0  0  0  0  0  0  0  0  0
    1.3894   -2.2093    0.0000 H   0  0  0  0  0  0  0  0  0  0  0  0
    1.7880   -2.8996    0.0000 H   0  0  0  0  0  0  0  0  0  0  0  0
    3.9441   -2.8996    0.0000 H   0  0  0  0  0  0  0  0  0  0  0  0
    4.3426   -2.2093    0.0000 H   0  0  0  0  0  0  0  0  0  0  0  0
    2.6540    0.7656    0.0000 H   0  0  0  0  0  0  0  0  0  0  0  0
    2.2554    0.0754    0.0000 H   0  0  0  0  0  0  0  0  0  0  0  0
    1.8291   -3.3730    0.0000 H   0  0  0  0  0  0  0  0  0  0  0  0
    2.0560   -4.2200    0.0000 H   0  0  0  0  0  0  0  0  0  0  0  0
    2.9030   -3.9930    0.0000 H   0  0  0  0  0  0  0  0  0  0  0  0
    4.2690    0.3730    0.0000 H   0  0  0  0  0  0  0  0  0  0  0  0
    4.0611    3.4930    0.0000 H   0  0  0  0  0  0  0  0  0  0  0  0
    6.8671    1.8730    0.0000 H   0  0  0  0  0  0  0  0  0  0  0  0
    5.4641    4.3030    0.0000 H   0  0  0  0  0  0  0  0  0  0  0  0
    6.8671    3.4930    0.0000 H   0  0  0  0  0  0  0  0  0  0  0  0
  1 14  1  0  0  0  0
  2 12  2  0  0  0  0
  3  8  1  0  0  0  0
  3  9  1  0  0  0  0
  3 11  1  0  0  0  0
  3 20  1  0  0  0  0
  4 10  1  0  0  0  0
  4 12  1  0  0  0  0
  4 34  1  0  0  0  0
  5  6  1  0  0  0  0
  5  7  1  0  0  0  0
  5 10  1  0  0  0  0
  5 19  1  0  0  0  0
  6  8  1  0  0  0  0
  6 21  1  0  0  0  0
  6 22  1  0  0  0  0
  7  9  1  0  0  0  0
  7 23  1  0  0  0  0
  7 24  1  0  0  0  0
  8 25  1  0  0  0  0
  8 26  1  0  0  0  0
  9 27  1  0  0  0  0
  9 28  1  0  0  0  0
 10 29  1  0  0  0  0
 10 30  1  0  0  0  0
 11 31  1  0  0  0  0
 11 32  1  0  0  0  0
 11 33  1  0  0  0  0
 12 13  1  0  0  0  0
 13 14  1  0  0  0  0
 13 15  2  0  0  0  0
 14 16  2  0  0  0  0
 15 17  1  0  0  0  0
 15 35  1  0  0  0  0
 16 18  1  0  0  0  0
 16 36  1  0  0  0  0
 17 18  2  0  0  0  0
 17 37  1  0  0  0  0
 18 38  1  0  0  0  0
M  CHG  1   3   1
M  END
> <PUBCHEM_COMPOUND_CID>
30781002

> <PUBCHEM_COMPOUND_CANONICALIZED>
1

> <PUBCHEM_CACTVS_COMPLEXITY>
277

> <PUBCHEM_CACTVS_HBOND_ACCEPTOR>
1

> <PUBCHEM_CACTVS_HBOND_DONOR>
2

> <PUBCHEM_CACTVS_ROTATABLE_BOND>
3

> <PUBCHEM_CACTVS_SUBSKEYS>
AAADceBzIAAEAAAAAAAAAAAAAAAAAAAAAAA8QAAAAAAAAAABAAAAHgIQAAAADQLBmCQyAIPAAACIAiFSEACCAAAkBQAIiIEIBsgIIDKBlxGEIQhglgCIjYcYiACOAAAAAAABAAAAAAAAAAIAAAAAAAAAAA==

> <PUBCHEM_IUPAC_OPENEYE_NAME>
2-chloro-N-[(1-methylpiperidin-1-ium-4-yl)methyl]benzamide

> <PUBCHEM_IUPAC_CAS_NAME>
2-chloro-N-[(1-methyl-4-piperidin-1-iumyl)methyl]benzamide

> <PUBCHEM_IUPAC_NAME>
2-chloro-N-[(1-methylpiperidin-1-ium-4-yl)methyl]benzamide

> <PUBCHEM_IUPAC_SYSTEMATIC_NAME>
2-chloranyl-N-[(1-methylpiperidin-1-ium-4-yl)methyl]benzamide

> <PUBCHEM_IUPAC_TRADITIONAL_NAME>
2-chloro-N-[(1-methylpiperidin-1-ium-4-yl)methyl]benzamide

> <PUBCHEM_IUPAC_INCHI>
InChI=1S/C14H19ClN2O/c1-17-8-6-11(7-9-17)10-16-14(18)12-4-2-3-5-13(12)15/h2-5,11H,6-10H2,1H3,(H,16,18)/p+1

> <PUBCHEM_IUPAC_INCHIKEY>
TZUOJVMUWXOGPU-UHFFFAOYSA-O

> <PUBCHEM_XLOGP3>
1.7

> <PUBCHEM_EXACT_MASS>
267.126416

> <PUBCHEM_MOLECULAR_FORMULA>
C14H20ClN2O+

> <PUBCHEM_MOLECULAR_WEIGHT>
267.7744

> <PUBCHEM_OPENEYE_CAN_SMILES>
C[NH+]1CCC(CC1)CNC(=O)C2=CC=CC=C2Cl

> <PUBCHEM_OPENEYE_ISO_SMILES>
C[NH+]1CCC(CC1)CNC(=O)C2=CC=CC=C2Cl

> <PUBCHEM_CACTVS_TPSA>
33.5

> <PUBCHEM_MONOISOTOPIC_WEIGHT>
267.126416

> <PUBCHEM_TOTAL_CHARGE>
1

> <PUBCHEM_HEAVY_ATOM_COUNT>
18

> <PUBCHEM_ATOM_DEF_STEREO_COUNT>
0

> <PUBCHEM_ATOM_UDEF_STEREO_COUNT>
0

> <PUBCHEM_BOND_DEF_STEREO_COUNT>
0

> <PUBCHEM_BOND_UDEF_STEREO_COUNT>
0

> <PUBCHEM_ISOTOPIC_ATOM_COUNT>
0

> <PUBCHEM_COMPONENT_COUNT>
1

> <PUBCHEM_CACTVS_TAUTO_COUNT>
2

> <PUBCHEM_COORDINATE_TYPE>
1
5
255

> <PUBCHEM_BONDANNOTATIONS>
13  14  8
13  15  8
14  16  8
15  17  8
16  18  8
17  18  8

$$$$
30781027
  -OEChem-11301217432D

 44 46  0     0  0  0  0  0  0999 V2000
    6.9501   -0.0843    0.0000 O   0  0  0  0  0  0  0  0  0  0  0  0
    2.6200   -2.5843    0.0000 N   0  3  0  0  0  0  0  0  0  0  0  0
    5.2181   -0.0843    0.0000 N   0  0  0  0  0  0  0  0  0  0  0  0
    4.3521   -1.5843    0.0000 C   0  0  0  0  0  0  0  0  0  0  0  0
    3.4860   -1.0843    0.0000 C   0  0  0  0  0  0  0  0  0  0  0  0
    4.3521   -2.5843    0.0000 C   0  0  0  0  0  0  0  0  0  0  0  0
    2.6200   -1.5843    0.0000 C   0  0  0  0  0  0  0  0  0  0  0  0
    3.4860   -3.0843    0.0000 C   0  0  0  0  0  0  0  0  0  0  0  0
    5.2181   -1.0843    0.0000 C   0  0  0  0  0  0  0  0  0  0  0  0
    2.1200   -3.4503    0.0000 C   0  0  0  0  0  0  0  0  0  0  0  0
    6.0841    0.4157    0.0000 C   0  0  0  0  0  0  0  0  0  0  0  0
    6.0841    1.4157    0.0000 C   0  0  0  0  0  0  0  0  0  0  0  0
    6.9501    1.9157    0.0000 C   0  0  0  0  0  0  0  0  0  0  0  0
    5.2181    1.9157    0.0000 C   0  0  0  0  0  0  0  0  0  0  0  0
    6.9501    2.9157    0.0000 C   0  0  0  0  0  0  0  0  0  0  0  0
    7.8441    1.3810    0.0000 C   0  0  0  0  0  0  0  0  0  0  0  0
    5.2181    2.9157    0.0000 C   0  0  0  0  0  0  0  0  0  0  0  0
    6.0841    3.4157    0.0000 C   0  0  0  0  0  0  0  0  0  0  0  0
    7.8441    3.4503    0.0000 C   0  0  0  0  0  0  0  0  0  0  0  0
    8.7501    1.8949    0.0000 C   0  0  0  0  0  0  0  0  0  0  0  0
    8.7501    2.9365    0.0000 C   0  0  0  0  0  0  0  0  0  0  0  0
    4.3521   -0.9643    0.0000 H   0  0  0  0  0  0  0  0  0  0  0  0
    2.0000   -2.5843    0.0000 H   0  0  0  0  0  0  0  0  0  0  0  0
    3.8846   -0.6094    0.0000 H   0  0  0  0  0  0  0  0  0  0  0  0
    3.0875   -0.6094    0.0000 H   0  0  0  0  0  0  0  0  0  0  0  0
    4.5641   -3.1669    0.0000 H   0  0  0  0  0  0  0  0  0  0  0  0
    4.9626   -2.4767    0.0000 H   0  0  0  0  0  0  0  0  0  0  0  0
    2.4080   -1.0017    0.0000 H   0  0  0  0  0  0  0  0  0  0  0  0
    2.0094   -1.6920    0.0000 H   0  0  0  0  0  0  0  0  0  0  0  0
    3.0875   -3.5593    0.0000 H   0  0  0  0  0  0  0  0  0  0  0  0
    3.8846   -3.5593    0.0000 H   0  0  0  0  0  0  0  0  0  0  0  0
    5.4301   -1.6669    0.0000 H   0  0  0  0  0  0  0  0  0  0  0  0
    5.8287   -0.9767    0.0000 H   0  0  0  0  0  0  0  0  0  0  0  0
    1.5831   -3.1403    0.0000 H   0  0  0  0  0  0  0  0  0  0  0  0
    1.8100   -3.9873    0.0000 H   0  0  0  0  0  0  0  0  0  0  0  0
    2.6569   -3.7603    0.0000 H   0  0  0  0  0  0  0  0  0  0  0  0
    4.6811    0.2257    0.0000 H   0  0  0  0  0  0  0  0  0  0  0  0
    4.6811    1.6057    0.0000 H   0  0  0  0  0  0  0  0  0  0  0  0
    7.8369    0.7611    0.0000 H   0  0  0  0  0  0  0  0  0  0  0  0
    4.6811    3.2257    0.0000 H   0  0  0  0  0  0  0  0  0  0  0  0
    6.0841    4.0357    0.0000 H   0  0  0  0  0  0  0  0  0  0  0  0
    7.8369    4.0703    0.0000 H   0  0  0  0  0  0  0  0  0  0  0  0
    9.2859    1.5828    0.0000 H   0  0  0  0  0  0  0  0  0  0  0  0
    9.2859    3.2486    0.0000 H   0  0  0  0  0  0  0  0  0  0  0  0
  1 11  2  0  0  0  0
  2  7  1  0  0  0  0
  2  8  1  0  0  0  0
  2 10  1  0  0  0  0
  2 23  1  0  0  0  0
  3  9  1  0  0  0  0
  3 11  1  0  0  0  0
  3 37  1  0  0  0  0
  4  5  1  0  0  0  0
  4  6  1  0  0  0  0
  4  9  1  0  0  0  0
  4 22  1  0  0  0  0
  5  7  1  0  0  0  0
  5 24  1  0  0  0  0
  5 25  1  0  0  0  0
  6  8  1  0  0  0  0
  6 26  1  0  0  0  0
  6 27  1  0  0  0  0
  7 28  1  0  0  0  0
  7 29  1  0  0  0  0
  8 30  1  0  0  0  0
  8 31  1  0  0  0  0
  9 32  1  0  0  0  0
  9 33  1  0  0  0  0
 10 34  1  0  0  0  0
 10 35  1  0  0  0  0
 10 36  1  0  0  0  0
 11 12  1  0  0  0  0
 12 13  1  0  0  0  0
 12 14  2  0  0  0  0
 13 15  1  0  0  0  0
 13 16  2  0  0  0  0
 14 17  1  0  0  0  0
 14 38  1  0  0  0  0
 15 18  1  0  0  0  0
 15 19  2  0  0  0  0
 16 20  1  0  0  0  0
 16 39  1  0  0  0  0
 17 18  2  0  0  0  0
 17 40  1  0  0  0  0
 18 41  1  0  0  0  0
 19 21  1  0  0  0  0
 19 42  1  0  0  0  0
 20 21  2  0  0  0  0
 20 43  1  0  0  0  0
 21 44  1  0  0  0  0
M  CHG  1   2   1
M  END
> <PUBCHEM_COMPOUND_CID>
30781027

> <PUBCHEM_COMPOUND_CANONICALIZED>
1

> <PUBCHEM_CACTVS_COMPLEXITY>
349

> <PUBCHEM_CACTVS_HBOND_ACCEPTOR>
1

> <PUBCHEM_CACTVS_HBOND_DONOR>
2

> <PUBCHEM_CACTVS_ROTATABLE_BOND>
3

> <PUBCHEM_CACTVS_SUBSKEYS>
AAADceB7IAAAAAAAAAAAAAAAAAAAAAAAAAA8YIAAAAAAAADBUAAAHgAQAAAADQDBmAQyAMPAAACIAiFSEACCAAAkAAAIiIEIBMgIIDKAlRGEIQhglgCIiYcYiMCOgAACAAAQAAAAAAQAACAAAAAAAAAAAA==

> <PUBCHEM_IUPAC_OPENEYE_NAME>
N-[(1-methylpiperidin-1-ium-4-yl)methyl]naphthalene-1-carboxamide

> <PUBCHEM_IUPAC_CAS_NAME>
N-[(1-methyl-4-piperidin-1-iumyl)methyl]-1-naphthalenecarboxamide

> <PUBCHEM_IUPAC_NAME>
N-[(1-methylpiperidin-1-ium-4-yl)methyl]naphthalene-1-carboxamide

> <PUBCHEM_IUPAC_SYSTEMATIC_NAME>
N-[(1-methylpiperidin-1-ium-4-yl)methyl]naphthalene-1-carboxamide

> <PUBCHEM_IUPAC_TRADITIONAL_NAME>
N-[(1-methylpiperidin-1-ium-4-yl)methyl]-1-naphthamide

> <PUBCHEM_IUPAC_INCHI>
InChI=1S/C18H22N2O/c1-20-11-9-14(10-12-20)13-19-18(21)17-8-4-6-15-5-2-3-7-16(15)17/h2-8,14H,9-13H2,1H3,(H,19,21)/p+1

> <PUBCHEM_IUPAC_INCHIKEY>
ANGGIOXIYMFISG-UHFFFAOYSA-O

> <PUBCHEM_XLOGP3>
3.6

> <PUBCHEM_EXACT_MASS>
283.181038

> <PUBCHEM_MOLECULAR_FORMULA>
C18H23N2O+

> <PUBCHEM_MOLECULAR_WEIGHT>
283.38802

> <PUBCHEM_OPENEYE_CAN_SMILES>
C[NH+]1CCC(CC1)CNC(=O)C2=CC=CC3=CC=CC=C32

> <PUBCHEM_OPENEYE_ISO_SMILES>
C[NH+]1CCC(CC1)CNC(=O)C2=CC=CC3=CC=CC=C32

> <PUBCHEM_CACTVS_TPSA>
33.5

> <PUBCHEM_MONOISOTOPIC_WEIGHT>
283.181038

> <PUBCHEM_TOTAL_CHARGE>
1

> <PUBCHEM_HEAVY_ATOM_COUNT>
21

> <PUBCHEM_ATOM_DEF_STEREO_COUNT>
0

> <PUBCHEM_ATOM_UDEF_STEREO_COUNT>
0

> <PUBCHEM_BOND_DEF_STEREO_COUNT>
0

> <PUBCHEM_BOND_UDEF_STEREO_COUNT>
0

> <PUBCHEM_ISOTOPIC_ATOM_COUNT>
0

> <PUBCHEM_COMPONENT_COUNT>
1

> <PUBCHEM_CACTVS_TAUTO_COUNT>
2

> <PUBCHEM_COORDINATE_TYPE>
1
5
255

> <PUBCHEM_BONDANNOTATIONS>
12  13  8
12  14  8
13  15  8
13  16  8
14  17  8
15  18  8
15  19  8
16  20  8
17  18  8
19  21  8
20  21  8

$$$$
30789577
  -OEChem-11301217432D

 45 47  0     0  0  0  0  0  0999 V2000
    5.6103    1.6375    0.0000 O   0  0  0  0  0  0  0  0  0  0  0  0
    7.2566    1.0994    0.0000 N   0  0  0  0  0  0  0  0  0  0  0  0
    4.6783   -2.8236    0.0000 N   0  0  0  0  0  0  0  0  0  0  0  0
    8.5458    2.2561    0.0000 C   0  0  0  0  0  0  0  0  0  0  0  0
    9.2136    1.5118    0.0000 C   0  0  0  0  0  0  0  0  0  0  0  0
    8.8564    3.2066    0.0000 C   0  0  0  0  0  0  0  0  0  0  0  0
   10.1921    1.7180    0.0000 C   0  0  0  0  0  0  0  0  0  0  0  0
    9.8349    3.4129    0.0000 C   0  0  0  0  0  0  0  0  0  0  0  0
   10.5028    2.6686    0.0000 C   0  0  0  0  0  0  0  0  0  0  0  0
    7.5673    2.0499    0.0000 C   0  0  0  0  0  0  0  0  0  0  0  0
    6.2781    0.8932    0.0000 C   0  0  0  0  0  0  0  0  0  0  0  0
    5.9674   -0.0573    0.0000 C   0  0  0  0  0  0  0  0  0  0  0  0
    4.9889   -0.2636    0.0000 C   0  0  0  0  0  0  0  0  0  0  0  0
    4.6783   -1.2141    0.0000 C   0  0  0  0  0  0  0  0  0  0  0  0
    3.7320   -1.5188    0.0000 C   0  0  0  0  0  0  0  0  0  0  0  0
    3.7320   -2.5188    0.0000 C   0  0  0  0  0  0  0  0  0  0  0  0
    5.2619   -2.0188    0.0000 C   0  0  0  0  0  0  0  0  0  0  0  0
    2.8660   -1.0188    0.0000 C   0  0  0  0  0  0  0  0  0  0  0  0
    2.8660   -3.0188    0.0000 C   0  0  0  0  0  0  0  0  0  0  0  0
    2.0000   -1.5188    0.0000 C   0  0  0  0  0  0  0  0  0  0  0  0
    2.0000   -2.5188    0.0000 C   0  0  0  0  0  0  0  0  0  0  0  0
    8.3532    1.6668    0.0000 H   0  0  0  0  0  0  0  0  0  0  0  0
    8.6873    1.1842    0.0000 H   0  0  0  0  0  0  0  0  0  0  0  0
    9.4449    0.9366    0.0000 H   0  0  0  0  0  0  0  0  0  0  0  0
    8.8359    3.8263    0.0000 H   0  0  0  0  0  0  0  0  0  0  0  0
    8.2426    3.2940    0.0000 H   0  0  0  0  0  0  0  0  0  0  0  0
   10.3613    3.7405    0.0000 H   0  0  0  0  0  0  0  0  0  0  0  0
    9.6037    3.9881    0.0000 H   0  0  0  0  0  0  0  0  0  0  0  0
   10.2127    1.0984    0.0000 H   0  0  0  0  0  0  0  0  0  0  0  0
   10.8059    1.6307    0.0000 H   0  0  0  0  0  0  0  0  0  0  0  0
   11.0497    2.3766    0.0000 H   0  0  0  0  0  0  0  0  0  0  0  0
   10.8853    3.1565    0.0000 H   0  0  0  0  0  0  0  0  0  0  0  0
    7.5467    2.6696    0.0000 H   0  0  0  0  0  0  0  0  0  0  0  0
    6.9534    2.1373    0.0000 H   0  0  0  0  0  0  0  0  0  0  0  0
    7.6707    0.6379    0.0000 H   0  0  0  0  0  0  0  0  0  0  0  0
    5.9880   -0.6770    0.0000 H   0  0  0  0  0  0  0  0  0  0  0  0
    6.5812   -0.1447    0.0000 H   0  0  0  0  0  0  0  0  0  0  0  0
    4.9684    0.3561    0.0000 H   0  0  0  0  0  0  0  0  0  0  0  0
    4.3751   -0.1762    0.0000 H   0  0  0  0  0  0  0  0  0  0  0  0
    5.8819   -2.0188    0.0000 H   0  0  0  0  0  0  0  0  0  0  0  0
    4.8709   -3.4129    0.0000 H   0  0  0  0  0  0  0  0  0  0  0  0
    2.8660   -0.3988    0.0000 H   0  0  0  0  0  0  0  0  0  0  0  0
    2.8660   -3.6388    0.0000 H   0  0  0  0  0  0  0  0  0  0  0  0
    1.4631   -1.2088    0.0000 H   0  0  0  0  0  0  0  0  0  0  0  0
    1.4631   -2.8288    0.0000 H   0  0  0  0  0  0  0  0  0  0  0  0
  1 11  2  0  0  0  0
  2 10  1  0  0  0  0
  2 11  1  0  0  0  0
  2 35  1  0  0  0  0
  3 16  1  0  0  0  0
  3 17  1  0  0  0  0
  3 41  1  0  0  0  0
  4  5  1  0  0  0  0
  4  6  1  0  0  0  0
  4 10  1  0  0  0  0
  4 22  1  0  0  0  0
  5  7  1  0  0  0  0
  5 23  1  0  0  0  0
  5 24  1  0  0  0  0
  6  8  1  0  0  0  0
  6 25  1  0  0  0  0
  6 26  1  0  0  0  0
  7  9  1  0  0  0  0
  7 29  1  0  0  0  0
  7 30  1  0  0  0  0
  8  9  1  0  0  0  0
  8 27  1  0  0  0  0
  8 28  1  0  0  0  0
  9 31  1  0  0  0  0
  9 32  1  0  0  0  0
 10 33  1  0  0  0  0
 10 34  1  0  0  0  0
 11 12  1  0  0  0  0
 12 13  1  0  0  0  0
 12 36  1  0  0  0  0
 12 37  1  0  0  0  0
 13 14  1  0  0  0  0
 13 38  1  0  0  0  0
 13 39  1  0  0  0  0
 14 15  1  0  0  0  0
 14 17  2  0  0  0  0
 15 16  1  0  0  0  0
 15 18  2  0  0  0  0
 16 19  2  0  0  0  0
 17 40  1  0  0  0  0
 18 20  1  0  0  0  0
 18 42  1  0  0  0  0
 19 21  1  0  0  0  0
 19 43  1  0  0  0  0
 20 21  2  0  0  0  0
 20 44  1  0  0  0  0
 21 45  1  0  0  0  0
M  END
> <PUBCHEM_COMPOUND_CID>
30789577

> <PUBCHEM_COMPOUND_CANONICALIZED>
1

> <PUBCHEM_CACTVS_COMPLEXITY>
338

> <PUBCHEM_CACTVS_HBOND_ACCEPTOR>
1

> <PUBCHEM_CACTVS_HBOND_DONOR>
2

> <PUBCHEM_CACTVS_ROTATABLE_BOND>
5

> <PUBCHEM_CACTVS_SUBSKEYS>
AAADceB7IAAAAAAAAAAAAAAAAAAAAWAAAAAwYAAAAAAAAFgB8AAAHgAQAAAADQjBngQ8wPLJkACoAzV3VACCgCAxAiAI2aE4ZJgIIPLAkZGEIAhglgDIyAcYicCOgAAAAAACAAAAAAAAAAQAAAAAAAAAAA==

> <PUBCHEM_IUPAC_OPENEYE_NAME>
N-(cyclohexylmethyl)-3-(1H-indol-3-yl)propanamide

> <PUBCHEM_IUPAC_CAS_NAME>
N-(cyclohexylmethyl)-3-(1H-indol-3-yl)propanamide

> <PUBCHEM_IUPAC_NAME>
N-(cyclohexylmethyl)-3-(1H-indol-3-yl)propanamide

> <PUBCHEM_IUPAC_SYSTEMATIC_NAME>
N-(cyclohexylmethyl)-3-(1H-indol-3-yl)propanamide

> <PUBCHEM_IUPAC_TRADITIONAL_NAME>
N-(cyclohexylmethyl)-3-(1H-indol-3-yl)propionamide

> <PUBCHEM_IUPAC_INCHI>
InChI=1S/C18H24N2O/c21-18(20-12-14-6-2-1-3-7-14)11-10-15-13-19-17-9-5-4-8-16(15)17/h4-5,8-9,13-14,19H,1-3,6-7,10-12H2,(H,20,21)

> <PUBCHEM_IUPAC_INCHIKEY>
VQRRNUJOLYFSCS-UHFFFAOYSA-N

> <PUBCHEM_XLOGP3>
3.9

> <PUBCHEM_EXACT_MASS>
284.188863

> <PUBCHEM_MOLECULAR_FORMULA>
C18H24N2O

> <PUBCHEM_MOLECULAR_WEIGHT>
284.39596

> <PUBCHEM_OPENEYE_CAN_SMILES>
C1CCC(CC1)CNC(=O)CCC2=CNC3=CC=CC=C32

> <PUBCHEM_OPENEYE_ISO_SMILES>
C1CCC(CC1)CNC(=O)CCC2=CNC3=CC=CC=C32

> <PUBCHEM_CACTVS_TPSA>
44.9

> <PUBCHEM_MONOISOTOPIC_WEIGHT>
284.188863

> <PUBCHEM_TOTAL_CHARGE>
0

> <PUBCHEM_HEAVY_ATOM_COUNT>
21

> <PUBCHEM_ATOM_DEF_STEREO_COUNT>
0

> <PUBCHEM_ATOM_UDEF_STEREO_COUNT>
0

> <PUBCHEM_BOND_DEF_STEREO_COUNT>
0

> <PUBCHEM_BOND_UDEF_STEREO_COUNT>
0

> <PUBCHEM_ISOTOPIC_ATOM_COUNT>
0

> <PUBCHEM_COMPONENT_COUNT>
1

> <PUBCHEM_CACTVS_TAUTO_COUNT>
2

> <PUBCHEM_COORDINATE_TYPE>
1
5
255

> <PUBCHEM_BONDANNOTATIONS>
14  15  8
14  17  8
15  16  8
15  18  8
16  19  8
18  20  8
19  21  8
20  21  8
3  16  8
3  17  8

$$$$
