45139850
  -OEChem-05231305252D

 18 18  0     0  0  0  0  0  0999 V2000
    4.5981    2.5000    0.0000 I   0  0  0  0  0  0  0  0  0  0  0  0
    2.8660   -0.5000    0.0000 O   0  0  0  0  0  0  0  0  0  0  0  0
    3.7320   -1.0000    0.0000 C   0  0  0  0  0  0  0  0  0  0  0  0
    4.5981   -0.5000    0.0000 C   0  0  0  0  0  0  0  0  0  0  0  0
    3.7320   -2.0000    0.0000 C   0  0  0  0  0  0  0  0  0  0  0  0
    5.4641   -1.0000    0.0000 C   0  0  0  0  0  0  0  0  0  0  0  0
    4.5981   -2.5000    0.0000 C   0  0  0  0  0  0  0  0  0  0  0  0
    5.4641   -2.0000    0.0000 C   0  0  0  0  0  0  0  0  0  0  0  0
    2.0000   -1.0000    0.0000 C   0  0  0  0  0  0  0  0  0  0  0  0
    4.5981    0.5000    0.0000 C   0  0  0  0  0  0  0  0  0  0  0  0
    4.5981    1.5000    0.0000 C   0  0  0  0  0  0  0  0  0  0  0  0
    3.1951   -2.3100    0.0000 H   0  0  0  0  0  0  0  0  0  0  0  0
    6.0010   -0.6900    0.0000 H   0  0  0  0  0  0  0  0  0  0  0  0
    4.5981   -3.1200    0.0000 H   0  0  0  0  0  0  0  0  0  0  0  0
    6.0010   -2.3100    0.0000 H   0  0  0  0  0  0  0  0  0  0  0  0
    1.6900   -0.4631    0.0000 H   0  0  0  0  0  0  0  0  0  0  0  0
    1.4631   -1.3100    0.0000 H   0  0  0  0  0  0  0  0  0  0  0  0
    2.3100   -1.5369    0.0000 H   0  0  0  0  0  0  0  0  0  0  0  0
  1 11  1  0  0  0  0
  2  3  1  0  0  0  0
  2  9  1  0  0  0  0
  3  4  1  0  0  0  0
  3  5  2  0  0  0  0
  4  6  2  0  0  0  0
  4 10  1  0  0  0  0
  5  7  1  0  0  0  0
  5 12  1  0  0  0  0
  6  8  1  0  0  0  0
  6 13  1  0  0  0  0
  7  8  2  0  0  0  0
  7 14  1  0  0  0  0
  8 15  1  0  0  0  0
  9 16  1  0  0  0  0
  9 17  1  0  0  0  0
  9 18  1  0  0  0  0
 10 11  3  0  0  0  0
M  END
> <PUBCHEM_COMPOUND_CID>
45139850

> <PUBCHEM_COMPOUND_CANONICALIZED>
1

> <PUBCHEM_CACTVS_COMPLEXITY>
177

> <PUBCHEM_CACTVS_HBOND_ACCEPTOR>
1

> <PUBCHEM_CACTVS_HBOND_DONOR>
0

> <PUBCHEM_CACTVS_ROTATABLE_BOND>
2

> <PUBCHEM_CACTVS_SUBSKEYS>
AAADcYBwIAAAAgAAAAAAAAAAAAAAAAAAAAAwAAAAAAAAAAABAAAAGgAgAAAADASCmAIyBoAABADAEiBCAAgCCAAgIAAIiAAGCIgMJiKEMRqAMCAkwBEIqAeAwCAOAAAAAAAIAAAAAAAAABAAAAAAAAAAAA==

> <PUBCHEM_IUPAC_OPENEYE_NAME>
1-(2-iodoethynyl)-2-methoxy-benzene

> <PUBCHEM_IUPAC_CAS_NAME>
1-(2-iodoethynyl)-2-methoxybenzene

> <PUBCHEM_IUPAC_NAME>
1-(2-iodoethynyl)-2-methoxybenzene

> <PUBCHEM_IUPAC_SYSTEMATIC_NAME>
1-(2-iodanylethynyl)-2-methoxy-benzene

> <PUBCHEM_IUPAC_TRADITIONAL_NAME>
1-(2-iodoethynyl)-2-methoxy-benzene

> <PUBCHEM_IUPAC_INCHI>
InChI=1S/C9H7IO/c1-11-9-5-3-2-4-8(9)6-7-10/h2-5H,1H3

> <PUBCHEM_IUPAC_INCHIKEY>
PWUIIISANGYFLT-UHFFFAOYSA-N

> <PUBCHEM_XLOGP3>
3.4

> <PUBCHEM_EXACT_MASS>
257.954163

> <PUBCHEM_MOLECULAR_FORMULA>
C9H7IO

> <PUBCHEM_MOLECULAR_WEIGHT>
258.05575

> <PUBCHEM_OPENEYE_CAN_SMILES>
COC1=CC=CC=C1C#CI

> <PUBCHEM_OPENEYE_ISO_SMILES>
COC1=CC=CC=C1C#CI

> <PUBCHEM_CACTVS_TPSA>
9.2

> <PUBCHEM_MONOISOTOPIC_WEIGHT>
257.954163

> <PUBCHEM_TOTAL_CHARGE>
0

> <PUBCHEM_HEAVY_ATOM_COUNT>
11

> <PUBCHEM_ATOM_DEF_STEREO_COUNT>
0

> <PUBCHEM_ATOM_UDEF_STEREO_COUNT>
0

> <PUBCHEM_BOND_DEF_STEREO_COUNT>
0

> <PUBCHEM_BOND_UDEF_STEREO_COUNT>
0

> <PUBCHEM_ISOTOPIC_ATOM_COUNT>
0

> <PUBCHEM_COMPONENT_COUNT>
1

> <PUBCHEM_CACTVS_TAUTO_COUNT>
1

> <PUBCHEM_COORDINATE_TYPE>
1
5
255

> <PUBCHEM_BONDANNOTATIONS>
3  4  8
3  5  8
4  6  8
5  7  8
6  8  8
7  8  8

$$$$
45140683
  -OEChem-05231305252D

 26 27  0     0  0  0  0  0  0999 V2000
    4.6783    0.7931    0.0000 N   0  0  0  0  0  0  0  0  0  0  0  0
    3.7320    0.4884    0.0000 C   0  0  0  0  0  0  0  0  0  0  0  0
    3.7320   -0.5116    0.0000 C   0  0  0  0  0  0  0  0  0  0  0  0
    5.2619   -0.0116    0.0000 C   0  0  0  0  0  0  0  0  0  0  0  0
    4.6783   -0.8163    0.0000 C   0  0  0  0  0  0  0  0  0  0  0  0
    2.8660    0.9884    0.0000 C   0  0  0  0  0  0  0  0  0  0  0  0
    4.9889    1.7436    0.0000 C   0  0  0  0  0  0  0  0  0  0  0  0
    2.8660   -1.0116    0.0000 C   0  0  0  0  0  0  0  0  0  0  0  0
    6.2619   -0.0116    0.0000 C   0  0  0  0  0  0  0  0  0  0  0  0
    2.0000    0.4884    0.0000 C   0  0  0  0  0  0  0  0  0  0  0  0
    2.0000   -0.5116    0.0000 C   0  0  0  0  0  0  0  0  0  0  0  0
    6.7619   -0.8776    0.0000 C   0  0  0  0  0  0  0  0  0  0  0  0
    6.2619   -1.7436    0.0000 C   0  0  0  0  0  0  0  0  0  0  0  0
    4.8709   -1.4057    0.0000 H   0  0  0  0  0  0  0  0  0  0  0  0
    2.8660    1.6084    0.0000 H   0  0  0  0  0  0  0  0  0  0  0  0
    5.5783    1.5510    0.0000 H   0  0  0  0  0  0  0  0  0  0  0  0
    5.1815    2.3330    0.0000 H   0  0  0  0  0  0  0  0  0  0  0  0
    4.3996    1.9363    0.0000 H   0  0  0  0  0  0  0  0  0  0  0  0
    2.8660   -1.6316    0.0000 H   0  0  0  0  0  0  0  0  0  0  0  0
    6.5719    0.5253    0.0000 H   0  0  0  0  0  0  0  0  0  0  0  0
    1.4631    0.7984    0.0000 H   0  0  0  0  0  0  0  0  0  0  0  0
    1.4631   -0.8216    0.0000 H   0  0  0  0  0  0  0  0  0  0  0  0
    7.3819   -0.8776    0.0000 H   0  0  0  0  0  0  0  0  0  0  0  0
    5.7249   -1.4336    0.0000 H   0  0  0  0  0  0  0  0  0  0  0  0
    5.9519   -2.2806    0.0000 H   0  0  0  0  0  0  0  0  0  0  0  0
    6.7988   -2.0537    0.0000 H   0  0  0  0  0  0  0  0  0  0  0  0
  1  2  1  0  0  0  0
  1  4  1  0  0  0  0
  1  7  1  0  0  0  0
  2  3  1  0  0  0  0
  2  6  2  0  0  0  0
  3  5  1  0  0  0  0
  3  8  2  0  0  0  0
  4  5  2  0  0  0  0
  4  9  1  0  0  0  0
  5 14  1  0  0  0  0
  6 10  1  0  0  0  0
  6 15  1  0  0  0  0
  7 16  1  0  0  0  0
  7 17  1  0  0  0  0
  7 18  1  0  0  0  0
  8 11  1  0  0  0  0
  8 19  1  0  0  0  0
  9 12  2  0  0  0  0
  9 20  1  0  0  0  0
 10 11  2  0  0  0  0
 10 21  1  0  0  0  0
 11 22  1  0  0  0  0
 12 13  1  0  0  0  0
 12 23  1  0  0  0  0
 13 24  1  0  0  0  0
 13 25  1  0  0  0  0
 13 26  1  0  0  0  0
M  END
> <PUBCHEM_COMPOUND_CID>
45140683

> <PUBCHEM_COMPOUND_CANONICALIZED>
1

> <PUBCHEM_CACTVS_COMPLEXITY>
197

> <PUBCHEM_CACTVS_HBOND_ACCEPTOR>
0

> <PUBCHEM_CACTVS_HBOND_DONOR>
0

> <PUBCHEM_CACTVS_ROTATABLE_BOND>
1

> <PUBCHEM_CACTVS_SUBSKEYS>
AAADccByAAAAAAAAAAAAAAAAAAAAAWAAAAAwAAAAAAAAAFgB8AAAHAAAAAAADAiBHgQywPMMEACgAyRiRACCgCAhAiAI2CA4ZJgIIOLAkZGEIAhggADIyAcQgIAOAAAAAAACAAAAAAAAAAQAAAAAAAAAAA==

> <PUBCHEM_IUPAC_OPENEYE_NAME>
1-methyl-2-[(Z)-prop-1-enyl]indole

> <PUBCHEM_IUPAC_CAS_NAME>
1-methyl-2-[(Z)-prop-1-enyl]indole

> <PUBCHEM_IUPAC_NAME>
1-methyl-2-[(Z)-prop-1-enyl]indole

> <PUBCHEM_IUPAC_SYSTEMATIC_NAME>
1-methyl-2-[(Z)-prop-1-enyl]indole

> <PUBCHEM_IUPAC_TRADITIONAL_NAME>
1-methyl-2-[(Z)-prop-1-enyl]indole

> <PUBCHEM_IUPAC_INCHI>
InChI=1S/C12H13N/c1-3-6-11-9-10-7-4-5-8-12(10)13(11)2/h3-9H,1-2H3/b6-3-

> <PUBCHEM_IUPAC_INCHIKEY>
AEWOIGLHVVQJAF-UTCJRWHESA-N

> <PUBCHEM_XLOGP3>
3.5

> <PUBCHEM_EXACT_MASS>
171.104799

> <PUBCHEM_MOLECULAR_FORMULA>
C12H13N

> <PUBCHEM_MOLECULAR_WEIGHT>
171.23832

> <PUBCHEM_OPENEYE_CAN_SMILES>
CC=CC1=CC2=CC=CC=C2N1C

> <PUBCHEM_OPENEYE_ISO_SMILES>
C/C=C\C1=CC2=CC=CC=C2N1C

> <PUBCHEM_CACTVS_TPSA>
4.9

> <PUBCHEM_MONOISOTOPIC_WEIGHT>
171.104799

> <PUBCHEM_TOTAL_CHARGE>
0

> <PUBCHEM_HEAVY_ATOM_COUNT>
13

> <PUBCHEM_ATOM_DEF_STEREO_COUNT>
0

> <PUBCHEM_ATOM_UDEF_STEREO_COUNT>
0

> <PUBCHEM_BOND_DEF_STEREO_COUNT>
1

> <PUBCHEM_BOND_UDEF_STEREO_COUNT>
0

> <PUBCHEM_ISOTOPIC_ATOM_COUNT>
0

> <PUBCHEM_COMPONENT_COUNT>
1

> <PUBCHEM_CACTVS_TAUTO_COUNT>
1

> <PUBCHEM_COORDINATE_TYPE>
1
5
255

> <PUBCHEM_BONDANNOTATIONS>
1  2  8
1  4  8
10  11  8
2  3  8
2  6  8
3  5  8
3  8  8
4  5  8
6  10  8
8  11  8

$$$$
45146394
  -OEChem-05231305252D

 27 27  0     0  0  0  0  0  0999 V2000
    4.5981    3.5000    0.0000 Cl  0  0  0  0  0  0  0  0  0  0  0  0
    2.8660   -0.5000    0.0000 N   0  3  0  0  0  0  0  0  0  0  0  0
    2.8660    0.5000    0.0000 C   0  0  0  0  0  0  0  0  0  0  0  0
    3.7320    1.0000    0.0000 C   0  0  0  0  0  0  0  0  0  0  0  0
    3.7320    2.0000    0.0000 C   0  0  0  0  0  0  0  0  0  0  0  0
    2.8660   -1.5000    0.0000 C   0  0  0  0  0  0  0  0  0  0  0  0
    4.5981    2.5000    0.0000 C   0  0  0  0  0  0  0  0  0  0  0  0
    2.0000   -2.0000    0.0000 C   0  0  0  0  0  0  0  0  0  0  0  0
    3.7320   -2.0000    0.0000 C   0  0  0  0  0  0  0  0  0  0  0  0
    2.0000   -3.0000    0.0000 C   0  0  0  0  0  0  0  0  0  0  0  0
    3.7320   -3.0000    0.0000 C   0  0  0  0  0  0  0  0  0  0  0  0
    2.8660   -3.5000    0.0000 C   0  0  0  0  0  0  0  0  0  0  0  0
    2.6540    1.0826    0.0000 H   0  0  0  0  0  0  0  0  0  0  0  0
    2.2554    0.3923    0.0000 H   0  0  0  0  0  0  0  0  0  0  0  0
    3.9441    0.4174    0.0000 H   0  0  0  0  0  0  0  0  0  0  0  0
    4.3426    1.1077    0.0000 H   0  0  0  0  0  0  0  0  0  0  0  0
    3.4860   -0.5000    0.0000 H   0  0  0  0  0  0  0  0  0  0  0  0
    2.2460   -0.5000    0.0000 H   0  0  0  0  0  0  0  0  0  0  0  0
    3.5200    2.5826    0.0000 H   0  0  0  0  0  0  0  0  0  0  0  0
    3.1215    1.8923    0.0000 H   0  0  0  0  0  0  0  0  0  0  0  0
    4.8101    1.9174    0.0000 H   0  0  0  0  0  0  0  0  0  0  0  0
    5.2087    2.6077    0.0000 H   0  0  0  0  0  0  0  0  0  0  0  0
    1.4631   -1.6900    0.0000 H   0  0  0  0  0  0  0  0  0  0  0  0
    4.2690   -1.6900    0.0000 H   0  0  0  0  0  0  0  0  0  0  0  0
    1.4631   -3.3100    0.0000 H   0  0  0  0  0  0  0  0  0  0  0  0
    4.2690   -3.3100    0.0000 H   0  0  0  0  0  0  0  0  0  0  0  0
    2.8660   -4.1200    0.0000 H   0  0  0  0  0  0  0  0  0  0  0  0
  1  7  1  0  0  0  0
  2  3  1  0  0  0  0
  2  6  1  0  0  0  0
  2 17  1  0  0  0  0
  2 18  1  0  0  0  0
  3  4  1  0  0  0  0
  3 13  1  0  0  0  0
  3 14  1  0  0  0  0
  4  5  1  0  0  0  0
  4 15  1  0  0  0  0
  4 16  1  0  0  0  0
  5  7  1  0  0  0  0
  5 19  1  0  0  0  0
  5 20  1  0  0  0  0
  6  8  2  0  0  0  0
  6  9  1  0  0  0  0
  7 21  1  0  0  0  0
  7 22  1  0  0  0  0
  8 10  1  0  0  0  0
  8 23  1  0  0  0  0
  9 11  2  0  0  0  0
  9 24  1  0  0  0  0
 10 12  2  0  0  0  0
 10 25  1  0  0  0  0
 11 12  1  0  0  0  0
 11 26  1  0  0  0  0
 12 27  1  0  0  0  0
M  CHG  1   2   1
M  END
> <PUBCHEM_COMPOUND_CID>
45146394

> <PUBCHEM_COMPOUND_CANONICALIZED>
1

> <PUBCHEM_CACTVS_COMPLEXITY>
100

> <PUBCHEM_CACTVS_HBOND_ACCEPTOR>
0

> <PUBCHEM_CACTVS_HBOND_DONOR>
1

> <PUBCHEM_CACTVS_ROTATABLE_BOND>
5

> <PUBCHEM_CACTVS_SUBSKEYS>
AAADccByAAAEAAAAAAAAAAAAAAAAAAAAAAAwAAAAAAAAAAABAAAAHAIQAAAACAvBEEQwwILAAACAACRCQACCAAAhAgAIiIAIZogIICLBkZGEIAhgkADIyAcQAAAAAAAAAAAAAAAAAAAAAAAAAAAAAAAAAA==

> <PUBCHEM_IUPAC_OPENEYE_NAME>
4-chlorobutyl(phenyl)ammonium

> <PUBCHEM_IUPAC_CAS_NAME>
4-chlorobutyl(phenyl)ammonium

> <PUBCHEM_IUPAC_NAME>
4-chlorobutyl(phenyl)azanium

> <PUBCHEM_IUPAC_SYSTEMATIC_NAME>
4-chloranylbutyl(phenyl)azanium

> <PUBCHEM_IUPAC_TRADITIONAL_NAME>
4-chlorobutyl(phenyl)ammonium

> <PUBCHEM_IUPAC_INCHI>
InChI=1S/C10H14ClN/c11-8-4-5-9-12-10-6-2-1-3-7-10/h1-3,6-7,12H,4-5,8-9H2/p+1

> <PUBCHEM_IUPAC_INCHIKEY>
RGLROOZNFXDHCN-UHFFFAOYSA-O

> <PUBCHEM_XLOGP3>
2.9

> <PUBCHEM_EXACT_MASS>
184.089302

> <PUBCHEM_MOLECULAR_FORMULA>
C10H15ClN+

> <PUBCHEM_MOLECULAR_WEIGHT>
184.6858

> <PUBCHEM_OPENEYE_CAN_SMILES>
C1=CC=C(C=C1)[NH2+]CCCCCl

> <PUBCHEM_OPENEYE_ISO_SMILES>
C1=CC=C(C=C1)[NH2+]CCCCCl

> <PUBCHEM_CACTVS_TPSA>
16.6

> <PUBCHEM_MONOISOTOPIC_WEIGHT>
184.089302

> <PUBCHEM_TOTAL_CHARGE>
1

> <PUBCHEM_HEAVY_ATOM_COUNT>
12

> <PUBCHEM_ATOM_DEF_STEREO_COUNT>
0

> <PUBCHEM_ATOM_UDEF_STEREO_COUNT>
0

> <PUBCHEM_BOND_DEF_STEREO_COUNT>
0

> <PUBCHEM_BOND_UDEF_STEREO_COUNT>
0

> <PUBCHEM_ISOTOPIC_ATOM_COUNT>
0

> <PUBCHEM_COMPONENT_COUNT>
1

> <PUBCHEM_CACTVS_TAUTO_COUNT>
1

> <PUBCHEM_COORDINATE_TYPE>
1
5
255

> <PUBCHEM_BONDANNOTATIONS>
10  12  8
11  12  8
6  8  8
6  9  8
8  10  8
9  11  8

$$$$
45146671
  -OEChem-05231305252D

 48 50  0     0  0  0  0  0  0999 V2000
    9.7942   -1.1900    0.0000 S   0  0  0  0  0  0  0  0  0  0  0  0
    9.2942   -2.0560    0.0000 O   0  0  0  0  0  0  0  0  0  0  0  0
   10.2942   -0.3240    0.0000 O   0  0  0  0  0  0  0  0  0  0  0  0
   12.3923    1.3100    0.0000 O   0  0  0  0  0  0  0  0  0  0  0  0
    3.7320   -0.6900    0.0000 O   0  0  0  0  0  0  0  0  0  0  0  0
   14.1244   -1.6900    0.0000 O   0  0  0  0  0  0  0  0  0  0  0  0
    2.0000    2.3100    0.0000 O   0  0  0  0  0  0  0  0  0  0  0  0
   10.6603   -1.6900    0.0000 N   0  0  0  0  0  0  0  0  0  0  0  0
    6.3301    0.8100    0.0000 N   0  0  0  0  0  0  0  0  0  0  0  0
   12.3923   -1.6900    0.0000 N   0  0  0  0  0  0  0  0  0  0  0  0
   13.2583   -0.1900    0.0000 N   0  0  0  0  0  0  0  0  0  0  0  0
    8.9282   -0.6900    0.0000 C   0  0  0  0  0  0  0  0  0  0  0  0
    7.1962    0.3100    0.0000 C   0  0  0  0  0  0  0  0  0  0  0  0
    8.9282    0.3100    0.0000 C   0  0  0  0  0  0  0  0  0  0  0  0
    8.0622   -1.1900    0.0000 C   0  0  0  0  0  0  0  0  0  0  0  0
    8.0622    0.8100    0.0000 C   0  0  0  0  0  0  0  0  0  0  0  0
    7.1962   -0.6900    0.0000 C   0  0  0  0  0  0  0  0  0  0  0  0
   11.5263   -1.1900    0.0000 C   0  0  0  0  0  0  0  0  0  0  0  0
    5.4641    0.3100    0.0000 C   0  0  0  0  0  0  0  0  0  0  0  0
    4.5981    0.8100    0.0000 C   0  0  0  0  0  0  0  0  0  0  0  0
   11.5263   -0.1900    0.0000 C   0  0  0  0  0  0  0  0  0  0  0  0
    3.7320    0.3100    0.0000 C   0  0  0  0  0  0  0  0  0  0  0  0
    4.5981    1.8100    0.0000 C   0  0  0  0  0  0  0  0  0  0  0  0
   12.3923    0.3100    0.0000 C   0  0  0  0  0  0  0  0  0  0  0  0
    2.8660    0.8100    0.0000 C   0  0  0  0  0  0  0  0  0  0  0  0
   13.2583   -1.1900    0.0000 C   0  0  0  0  0  0  0  0  0  0  0  0
    3.7320    2.3100    0.0000 C   0  0  0  0  0  0  0  0  0  0  0  0
    2.8660    1.8100    0.0000 C   0  0  0  0  0  0  0  0  0  0  0  0
   13.2583    1.8100    0.0000 C   0  0  0  0  0  0  0  0  0  0  0  0
   14.9904   -1.1900    0.0000 C   0  0  0  0  0  0  0  0  0  0  0  0
    9.4651    0.6200    0.0000 H   0  0  0  0  0  0  0  0  0  0  0  0
    8.0622   -1.8100    0.0000 H   0  0  0  0  0  0  0  0  0  0  0  0
    8.0622    1.4300    0.0000 H   0  0  0  0  0  0  0  0  0  0  0  0
    6.6592   -1.0000    0.0000 H   0  0  0  0  0  0  0  0  0  0  0  0
   10.6603   -2.3100    0.0000 H   0  0  0  0  0  0  0  0  0  0  0  0
    6.3301    1.4300    0.0000 H   0  0  0  0  0  0  0  0  0  0  0  0
    5.4641   -0.3100    0.0000 H   0  0  0  0  0  0  0  0  0  0  0  0
   10.9893    0.1200    0.0000 H   0  0  0  0  0  0  0  0  0  0  0  0
    5.1350    2.1200    0.0000 H   0  0  0  0  0  0  0  0  0  0  0  0
    2.3291    0.5000    0.0000 H   0  0  0  0  0  0  0  0  0  0  0  0
    3.7320    2.9300    0.0000 H   0  0  0  0  0  0  0  0  0  0  0  0
    3.1951   -1.0000    0.0000 H   0  0  0  0  0  0  0  0  0  0  0  0
   13.5683    1.2731    0.0000 H   0  0  0  0  0  0  0  0  0  0  0  0
   13.7953    2.1200    0.0000 H   0  0  0  0  0  0  0  0  0  0  0  0
   12.9483    2.3469    0.0000 H   0  0  0  0  0  0  0  0  0  0  0  0
   15.3004   -1.7269    0.0000 H   0  0  0  0  0  0  0  0  0  0  0  0
   15.5273   -0.8800    0.0000 H   0  0  0  0  0  0  0  0  0  0  0  0
   14.6804   -0.6531    0.0000 H   0  0  0  0  0  0  0  0  0  0  0  0
  1  2  2  0  0  0  0
  1  3  2  0  0  0  0
  1  8  1  0  0  0  0
  1 12  1  0  0  0  0
  4 24  1  0  0  0  0
  4 29  1  0  0  0  0
  5 22  1  0  0  0  0
  5 42  1  0  0  0  0
  6 26  1  0  0  0  0
  6 30  1  0  0  0  0
  7 28  2  0  0  0  0
  8 18  1  0  0  0  0
  8 35  1  0  0  0  0
  9 13  1  0  0  0  0
  9 19  1  0  0  0  0
  9 36  1  0  0  0  0
 10 18  1  0  0  0  0
 10 26  2  0  0  0  0
 11 24  2  0  0  0  0
 11 26  1  0  0  0  0
 12 14  2  0  0  0  0
 12 15  1  0  0  0  0
 13 16  2  0  0  0  0
 13 17  1  0  0  0  0
 14 16  1  0  0  0  0
 14 31  1  0  0  0  0
 15 17  2  0  0  0  0
 15 32  1  0  0  0  0
 16 33  1  0  0  0  0
 17 34  1  0  0  0  0
 18 21  2  0  0  0  0
 19 20  2  0  0  0  0
 19 37  1  0  0  0  0
 20 22  1  0  0  0  0
 20 23  1  0  0  0  0
 21 24  1  0  0  0  0
 21 38  1  0  0  0  0
 22 25  2  0  0  0  0
 23 27  2  0  0  0  0
 23 39  1  0  0  0  0
 25 28  1  0  0  0  0
 25 40  1  0  0  0  0
 27 28  1  0  0  0  0
 27 41  1  0  0  0  0
 29 43  1  0  0  0  0
 29 44  1  0  0  0  0
 29 45  1  0  0  0  0
 30 46  1  0  0  0  0
 30 47  1  0  0  0  0
 30 48  1  0  0  0  0
M  END
> <PUBCHEM_COMPOUND_CID>
45146671

> <PUBCHEM_COMPOUND_CANONICALIZED>
1

> <PUBCHEM_CACTVS_COMPLEXITY>
811

> <PUBCHEM_CACTVS_HBOND_ACCEPTOR>
10

> <PUBCHEM_CACTVS_HBOND_DONOR>
3

> <PUBCHEM_CACTVS_ROTATABLE_BOND>
7

> <PUBCHEM_CACTVS_SUBSKEYS>
AAADceB7uABAAAAAAAAAAAAAAAAAAAAAAAA8QIAAAAAAAAABwAAAHgQQSAAADAzB0gYz9ZbIFgKoAqZ2ZHDCiDkhIqAJmLg+bNiMLCLE+dmEZChq0ApI+acQAAAAAAQAAAAAAAAACAAAAAAAAAAAAAAAAA==

> <PUBCHEM_IUPAC_OPENEYE_NAME>
N-(2,6-dimethoxypyrimidin-4-yl)-4-[[(E)-(2-hydroxy-4-oxo-cyclohexa-2,5-dien-1-ylidene)methyl]amino]benzenesulfonamide

> <PUBCHEM_IUPAC_CAS_NAME>
N-(2,6-dimethoxy-4-pyrimidinyl)-4-[[(E)-(2-hydroxy-4-oxo-1-cyclohexa-2,5-dienylidene)methyl]amino]benzenesulfonamide

> <PUBCHEM_IUPAC_NAME>
N-(2,6-dimethoxypyrimidin-4-yl)-4-[[(E)-(2-hydroxy-4-oxocyclohexa-2,5-dien-1-ylidene)methyl]amino]benzenesulfonamide

> <PUBCHEM_IUPAC_SYSTEMATIC_NAME>
N-(2,6-dimethoxypyrimidin-4-yl)-4-[[(E)-(2-oxidanyl-4-oxidanylidene-cyclohexa-2,5-dien-1-ylidene)methyl]amino]benzenesulfonamide

> <PUBCHEM_IUPAC_TRADITIONAL_NAME>
N-(2,6-dimethoxypyrimidin-4-yl)-4-[[(E)-(2-hydroxy-4-keto-cyclohexa-2,5-dien-1-ylidene)methyl]amino]benzenesulfonamide

> <PUBCHEM_IUPAC_INCHI>
InChI=1S/C19H18N4O6S/c1-28-18-10-17(21-19(22-18)29-2)23-30(26,27)15-7-4-13(5-8-15)20-11-12-3-6-14(24)9-16(12)25/h3-11,20,25H,1-2H3,(H,21,22,23)/b12-11+

> <PUBCHEM_IUPAC_INCHIKEY>
UJVKGGIGWXOUIH-VAWYXSNFSA-N

> <PUBCHEM_XLOGP3>
2.1

> <PUBCHEM_EXACT_MASS>
430.094705

> <PUBCHEM_MOLECULAR_FORMULA>
C19H18N4O6S

> <PUBCHEM_MOLECULAR_WEIGHT>
430.43442

> <PUBCHEM_OPENEYE_CAN_SMILES>
COC1=NC(=NC(=C1)NS(=O)(=O)C2=CC=C(C=C2)NC=C3C=CC(=O)C=C3O)OC

> <PUBCHEM_OPENEYE_ISO_SMILES>
COC1=NC(=NC(=C1)NS(=O)(=O)C2=CC=C(C=C2)N/C=C/3\C=CC(=O)C=C3O)OC

> <PUBCHEM_CACTVS_TPSA>
148

> <PUBCHEM_MONOISOTOPIC_WEIGHT>
430.094705

> <PUBCHEM_TOTAL_CHARGE>
0

> <PUBCHEM_HEAVY_ATOM_COUNT>
30

> <PUBCHEM_ATOM_DEF_STEREO_COUNT>
0

> <PUBCHEM_ATOM_UDEF_STEREO_COUNT>
0

> <PUBCHEM_BOND_DEF_STEREO_COUNT>
1

> <PUBCHEM_BOND_UDEF_STEREO_COUNT>
0

> <PUBCHEM_ISOTOPIC_ATOM_COUNT>
0

> <PUBCHEM_COMPONENT_COUNT>
1

> <PUBCHEM_CACTVS_TAUTO_COUNT>
36

> <PUBCHEM_COORDINATE_TYPE>
1
5
255

> <PUBCHEM_BONDANNOTATIONS>
10  18  8
10  26  8
11  24  8
11  26  8
12  14  8
12  15  8
13  16  8
13  17  8
14  16  8
15  17  8
18  21  8
21  24  8

$$$$
45148625
  -OEChem-05231305252D

 39 41  0     1  0  0  0  0  0999 V2000
    6.6520    0.8107    0.0000 O   0  0  0  0  0  0  0  0  0  0  0  0
    6.5375   -0.9176    0.0000 N   0  0  0  0  0  0  0  0  0  0  0  0
    5.0980    0.0457    0.0000 C   0  0  0  0  0  0  0  0  0  0  0  0
    2.0000    1.2487    0.0000 C   0  0  3  0  0  0  0  0  0  0  0  0
    3.7320    1.2487    0.0000 C   0  0  3  0  0  0  0  0  0  0  0  0
    2.8660   -0.2513    0.0000 C   0  0  0  0  0  0  0  0  0  0  0  0
    4.7112    0.9834    0.0000 C   0  0  0  0  0  0  0  0  0  0  0  0
    3.8963    1.5415    0.0000 C   0  0  0  0  0  0  0  0  0  0  0  0
    2.8660    1.7487    0.0000 C   0  0  0  0  0  0  0  0  0  0  0  0
    2.0000    0.2487    0.0000 C   0  0  0  0  0  0  0  0  0  0  0  0
    3.7320    0.2487    0.0000 C   0  0  0  0  0  0  0  0  0  0  0  0
    4.5908   -0.8328    0.0000 C   0  0  0  0  0  0  0  0  0  0  0  0
    3.5853   -0.9666    0.0000 C   0  0  0  0  0  0  0  0  0  0  0  0
    6.0959   -0.0204    0.0000 C   0  0  0  0  0  0  0  0  0  0  0  0
    7.5353   -0.9837    0.0000 C   0  0  0  0  0  0  0  0  0  0  0  0
    5.9814   -1.7487    0.0000 C   0  0  0  0  0  0  0  0  0  0  0  0
    1.4631    1.5587    0.0000 H   0  0  0  0  0  0  0  0  0  0  0  0
    3.9701    1.8212    0.0000 H   0  0  0  0  0  0  0  0  0  0  0  0
    2.4893   -0.7437    0.0000 H   0  0  0  0  0  0  0  0  0  0  0  0
    5.3219    1.0899    0.0000 H   0  0  0  0  0  0  0  0  0  0  0  0
    4.7396    1.6027    0.0000 H   0  0  0  0  0  0  0  0  0  0  0  0
    4.4397    1.8400    0.0000 H   0  0  0  0  0  0  0  0  0  0  0  0
    3.6967    2.1285    0.0000 H   0  0  0  0  0  0  0  0  0  0  0  0
    3.2646    2.2236    0.0000 H   0  0  0  0  0  0  0  0  0  0  0  0
    2.4675    2.2236    0.0000 H   0  0  0  0  0  0  0  0  0  0  0  0
    1.3894    0.3563    0.0000 H   0  0  0  0  0  0  0  0  0  0  0  0
    1.7880   -0.3339    0.0000 H   0  0  0  0  0  0  0  0  0  0  0  0
    3.9441   -0.3339    0.0000 H   0  0  0  0  0  0  0  0  0  0  0  0
    4.3426    0.3563    0.0000 H   0  0  0  0  0  0  0  0  0  0  0  0
    4.5374   -1.4505    0.0000 H   0  0  0  0  0  0  0  0  0  0  0  0
    5.1822   -1.0190    0.0000 H   0  0  0  0  0  0  0  0  0  0  0  0
    3.0632   -1.3010    0.0000 H   0  0  0  0  0  0  0  0  0  0  0  0
    3.7984   -1.5488    0.0000 H   0  0  0  0  0  0  0  0  0  0  0  0
    7.4944   -1.6023    0.0000 H   0  0  0  0  0  0  0  0  0  0  0  0
    8.1540   -1.0247    0.0000 H   0  0  0  0  0  0  0  0  0  0  0  0
    7.5763   -0.3650    0.0000 H   0  0  0  0  0  0  0  0  0  0  0  0
    5.4661   -1.4039    0.0000 H   0  0  0  0  0  0  0  0  0  0  0  0
    5.6366   -2.2640    0.0000 H   0  0  0  0  0  0  0  0  0  0  0  0
    6.4966   -2.0935    0.0000 H   0  0  0  0  0  0  0  0  0  0  0  0
  1 14  2  0  0  0  0
  2 14  1  0  0  0  0
  2 15  1  0  0  0  0
  2 16  1  0  0  0  0
  3  7  1  0  0  0  0
  3  8  1  0  0  0  0
  3 12  1  0  0  0  0
  3 14  1  0  0  0  0
  4  8  1  0  0  0  0
  4  9  1  0  0  0  0
  4 10  1  0  0  0  0
  4 17  1  0  0  0  0
  5  7  1  0  0  0  0
  5  9  1  0  0  0  0
  5 11  1  0  0  0  0
  5 18  1  0  0  0  0
  6 10  1  0  0  0  0
  6 11  1  0  0  0  0
  6 13  1  0  0  0  0
  6 19  1  0  0  0  0
  7 20  1  0  0  0  0
  7 21  1  0  0  0  0
  8 22  1  0  0  0  0
  8 23  1  0  0  0  0
  9 24  1  0  0  0  0
  9 25  1  0  0  0  0
 10 26  1  0  0  0  0
 10 27  1  0  0  0  0
 11 28  1  0  0  0  0
 11 29  1  0  0  0  0
 12 13  1  0  0  0  0
 12 30  1  0  0  0  0
 12 31  1  0  0  0  0
 13 32  1  0  0  0  0
 13 33  1  0  0  0  0
 15 34  1  0  0  0  0
 15 35  1  0  0  0  0
 15 36  1  0  0  0  0
 16 37  1  0  0  0  0
 16 38  1  0  0  0  0
 16 39  1  0  0  0  0
M  END
> <PUBCHEM_COMPOUND_CID>
45148625

> <PUBCHEM_COMPOUND_CANONICALIZED>
1

> <PUBCHEM_CACTVS_COMPLEXITY>
296

> <PUBCHEM_CACTVS_HBOND_ACCEPTOR>
1

> <PUBCHEM_CACTVS_HBOND_DONOR>
0

> <PUBCHEM_CACTVS_ROTATABLE_BOND>
1

> <PUBCHEM_CACTVS_SUBSKEYS>
AAADceByIAAAAAAAAAAAAAAAAAAAAAAAAAAwYAAABgwAAAAAAAAAHgAAAAAADwCBgAQCAAMAAAAIAAEQEAAAAAAAAAAAAAEIAAAAABIAgAAEAAAAAgAAAAEYiMCPAAAAAAAAAAAAAAQAAAAAAAAAAAAAAA==

> <PUBCHEM_IUPAC_INCHI>
InChI=1S/C14H23NO/c1-15(2)13(16)14-4-3-10-5-11(8-14)7-12(6-10)9-14/h10-12H,3-9H2,1-2H3

> <PUBCHEM_IUPAC_INCHIKEY>
PRXBSYPABVQDAW-UHFFFAOYSA-N

> <PUBCHEM_XLOGP3>
3.1

> <PUBCHEM_EXACT_MASS>
221.177964

> <PUBCHEM_MOLECULAR_FORMULA>
C14H23NO

> <PUBCHEM_MOLECULAR_WEIGHT>
221.33852

> <PUBCHEM_OPENEYE_CAN_SMILES>
CN(C)C(=O)C12CCC3CC(C1)CC(C3)C2

> <PUBCHEM_OPENEYE_ISO_SMILES>
CN(C)C(=O)C12CCC3CC(C1)CC(C3)C2

> <PUBCHEM_CACTVS_TPSA>
20.3

> <PUBCHEM_MONOISOTOPIC_WEIGHT>
221.177964

> <PUBCHEM_TOTAL_CHARGE>
0

> <PUBCHEM_HEAVY_ATOM_COUNT>
16

> <PUBCHEM_ATOM_DEF_STEREO_COUNT>
0

> <PUBCHEM_ATOM_UDEF_STEREO_COUNT>
2

> <PUBCHEM_BOND_DEF_STEREO_COUNT>
0

> <PUBCHEM_BOND_UDEF_STEREO_COUNT>
0

> <PUBCHEM_ISOTOPIC_ATOM_COUNT>
0

> <PUBCHEM_COMPONENT_COUNT>
1

> <PUBCHEM_CACTVS_TAUTO_COUNT>
1

> <PUBCHEM_COORDINATE_TYPE>
1
5
255

> <PUBCHEM_BONDANNOTATIONS>
4  8  3
5  7  3

$$$$
