5672226
  -OEChem-03221309122D

 26 26  0     0  0  0  0  0  0999 V2000
    4.5981    0.3450    0.0000 N   0  3  0  0  0  0  0  0  0  0  0  0
    4.5981    1.3450    0.0000 N   0  0  0  0  0  0  0  0  0  0  0  0
    5.4641    2.8450    0.0000 N   0  0  0  0  0  0  0  0  0  0  0  0
    6.3301    1.3450    0.0000 N   0  0  0  0  0  0  0  0  0  0  0  0
    2.8660   -1.6550    0.0000 C   0  0  0  0  0  0  0  0  0  0  0  0
    3.7320   -1.1550    0.0000 C   0  0  0  0  0  0  0  0  0  0  0  0
    2.8660   -2.6550    0.0000 C   0  0  0  0  0  0  0  0  0  0  0  0
    4.5981   -1.6550    0.0000 C   0  0  0  0  0  0  0  0  0  0  0  0
    2.0000   -1.1550    0.0000 C   0  0  0  0  0  0  0  0  0  0  0  0
    3.7320   -3.1550    0.0000 C   0  0  0  0  0  0  0  0  0  0  0  0
    4.5981   -2.6550    0.0000 C   0  0  0  0  0  0  0  0  0  0  0  0
    3.7320   -0.1550    0.0000 C   0  0  0  0  0  0  0  0  0  0  0  0
    5.4641    1.8450    0.0000 C   0  0  0  0  0  0  0  0  0  0  0  0
    2.3291   -2.9650    0.0000 H   0  0  0  0  0  0  0  0  0  0  0  0
    5.1350   -1.3450    0.0000 H   0  0  0  0  0  0  0  0  0  0  0  0
    2.3100   -0.6181    0.0000 H   0  0  0  0  0  0  0  0  0  0  0  0
    1.4631   -0.8450    0.0000 H   0  0  0  0  0  0  0  0  0  0  0  0
    1.6900   -1.6919    0.0000 H   0  0  0  0  0  0  0  0  0  0  0  0
    3.1951    0.1550    0.0000 H   0  0  0  0  0  0  0  0  0  0  0  0
    3.7320   -3.7750    0.0000 H   0  0  0  0  0  0  0  0  0  0  0  0
    5.1350   -2.9650    0.0000 H   0  0  0  0  0  0  0  0  0  0  0  0
    5.1350    0.0350    0.0000 H   0  0  0  0  0  0  0  0  0  0  0  0
    6.0010    3.1550    0.0000 H   0  0  0  0  0  0  0  0  0  0  0  0
    4.9272    3.1550    0.0000 H   0  0  0  0  0  0  0  0  0  0  0  0
    6.8671    1.6550    0.0000 H   0  0  0  0  0  0  0  0  0  0  0  0
    6.3301    0.7250    0.0000 H   0  0  0  0  0  0  0  0  0  0  0  0
  1  2  1  0  0  0  0
  1 12  2  0  0  0  0
  1 22  1  0  0  0  0
  2 13  2  0  0  0  0
  3 13  1  0  0  0  0
  3 23  1  0  0  0  0
  3 24  1  0  0  0  0
  4 13  1  0  0  0  0
  4 25  1  0  0  0  0
  4 26  1  0  0  0  0
  5  6  1  0  0  0  0
  5  7  2  0  0  0  0
  5  9  1  0  0  0  0
  6  8  2  0  0  0  0
  6 12  1  0  0  0  0
  7 10  1  0  0  0  0
  7 14  1  0  0  0  0
  8 11  1  0  0  0  0
  8 15  1  0  0  0  0
  9 16  1  0  0  0  0
  9 17  1  0  0  0  0
  9 18  1  0  0  0  0
 10 11  2  0  0  0  0
 10 20  1  0  0  0  0
 11 21  1  0  0  0  0
 12 19  1  0  0  0  0
M  CHG  1   1   1
M  END
> <PUBCHEM_COMPOUND_CID>
5672226

> <PUBCHEM_COMPOUND_CANONICALIZED>
1

> <PUBCHEM_CACTVS_COMPLEXITY>
206

> <PUBCHEM_CACTVS_HBOND_ACCEPTOR>
1

> <PUBCHEM_CACTVS_HBOND_DONOR>
3

> <PUBCHEM_CACTVS_ROTATABLE_BOND>
2

> <PUBCHEM_CACTVS_SUBSKEYS>
AAADccBzgAAAAAAAAAAAAAAAAAAAAAAAAAAwAAAAAAAAAAABAAAAHAAYAAAADADBGAQzAIBiAACgAjBjIAACAAAgAAAIiAAgAJgIIKKAERCAIAAggAAIiAcAgIAOgAAAAAAQAAAAAAAAACAAAAAAAAAAAA==

> <PUBCHEM_IUPAC_OPENEYE_NAME>
(E)-guanidino(o-tolylmethylene)ammonium

> <PUBCHEM_IUPAC_CAS_NAME>
(E)-(diaminomethylideneamino)-[(2-methylphenyl)methylidene]ammonium

> <PUBCHEM_IUPAC_NAME>
(E)-(diaminomethylideneamino)-[(2-methylphenyl)methylidene]azanium

> <PUBCHEM_IUPAC_SYSTEMATIC_NAME>
(E)-[bis(azanyl)methylideneamino]-[(2-methylphenyl)methylidene]azanium

> <PUBCHEM_IUPAC_TRADITIONAL_NAME>
(E)-guanidino-(2-methylbenzylidene)ammonium

> <PUBCHEM_IUPAC_INCHI>
InChI=1S/C9H12N4/c1-7-4-2-3-5-8(7)6-12-13-9(10)11/h2-6H,1H3,(H4,10,11,13)/p+1/b12-6+

> <PUBCHEM_IUPAC_INCHIKEY>
NAFYBNDPHKSYLF-WUXMJOGZSA-O

> <PUBCHEM_XLOGP3>
1.4

> <PUBCHEM_EXACT_MASS>
177.114021

> <PUBCHEM_MOLECULAR_FORMULA>
C9H13N4+

> <PUBCHEM_MOLECULAR_WEIGHT>
177.22632

> <PUBCHEM_OPENEYE_CAN_SMILES>
CC1=CC=CC=C1C=[NH+]N=C(N)N

> <PUBCHEM_OPENEYE_ISO_SMILES>
CC1=CC=CC=C1/C=[NH+]/N=C(N)N

> <PUBCHEM_CACTVS_TPSA>
78.4

> <PUBCHEM_MONOISOTOPIC_WEIGHT>
177.114021

> <PUBCHEM_TOTAL_CHARGE>
1

> <PUBCHEM_HEAVY_ATOM_COUNT>
13

> <PUBCHEM_ATOM_DEF_STEREO_COUNT>
0

> <PUBCHEM_ATOM_UDEF_STEREO_COUNT>
0

> <PUBCHEM_BOND_DEF_STEREO_COUNT>
1

> <PUBCHEM_BOND_UDEF_STEREO_COUNT>
0

> <PUBCHEM_ISOTOPIC_ATOM_COUNT>
0

> <PUBCHEM_COMPONENT_COUNT>
1

> <PUBCHEM_CACTVS_TAUTO_COUNT>
2

> <PUBCHEM_COORDINATE_TYPE>
1
5
255

> <PUBCHEM_BONDANNOTATIONS>
10  11  8
5  6  8
5  7  8
6  8  8
7  10  8
8  11  8

$$$$
