27301613
  -OEChem-12041211322D

 48 49  0     0  0  0  0  0  0999 V2000
    3.0000   -2.2500    0.0000 S   0  0  0  0  0  0  0  0  0  0  0  0
    3.0000    1.7500    0.0000 S   0  0  0  0  0  0  0  0  0  0  0  0
    6.4641    0.7500    0.0000 F   0  0  0  0  0  0  0  0  0  0  0  0
    6.0981    2.1160    0.0000 F   0  0  0  0  0  0  0  0  0  0  0  0
    5.0981    0.3840    0.0000 F   0  0  0  0  0  0  0  0  0  0  0  0
    2.0000   -2.2500    0.0000 O   0  0  0  0  0  0  0  0  0  0  0  0
    4.0000   -2.2500    0.0000 O   0  0  0  0  0  0  0  0  0  0  0  0
    4.0000    1.7500    0.0000 O   0  0  0  0  0  0  0  0  0  0  0  0
    2.0000    1.7500    0.0000 O   0  0  0  0  0  0  0  0  0  0  0  0
    4.7320    1.7500    0.0000 O   0  0  0  0  0  0  0  0  0  0  0  0
    3.0000   -3.2500    0.0000 N   0  0  0  0  0  0  0  0  0  0  0  0
    3.0000    2.7500    0.0000 N   0  0  0  0  0  0  0  0  0  0  0  0
    3.0000   -1.2500    0.0000 C   0  0  0  0  0  0  0  0  0  0  0  0
    2.1340   -3.7500    0.0000 C   0  0  0  0  0  0  0  0  0  0  0  0
    3.8660   -3.7500    0.0000 C   0  0  0  0  0  0  0  0  0  0  0  0
    3.0000    0.7500    0.0000 C   0  0  0  0  0  0  0  0  0  0  0  0
    3.8660   -0.7500    0.0000 C   0  0  0  0  0  0  0  0  0  0  0  0
    2.1340   -0.7500    0.0000 C   0  0  0  0  0  0  0  0  0  0  0  0
    3.8660    0.2500    0.0000 C   0  0  0  0  0  0  0  0  0  0  0  0
    2.1340    0.2500    0.0000 C   0  0  0  0  0  0  0  0  0  0  0  0
    3.8660   -4.7500    0.0000 C   0  0  0  0  0  0  0  0  0  0  0  0
    2.1340   -4.7500    0.0000 C   0  0  0  0  0  0  0  0  0  0  0  0
    3.8660    3.2500    0.0000 C   0  0  0  0  0  0  0  0  0  0  0  0
    4.7320    2.7500    0.0000 C   0  0  0  0  0  0  0  0  0  0  0  0
    3.8660    4.2500    0.0000 C   0  0  0  0  0  0  0  0  0  0  0  0
    5.5981    3.2500    0.0000 C   0  0  0  0  0  0  0  0  0  0  0  0
    4.7320    4.7500    0.0000 C   0  0  0  0  0  0  0  0  0  0  0  0
    5.5981    4.2500    0.0000 C   0  0  0  0  0  0  0  0  0  0  0  0
    5.5981    1.2500    0.0000 C   0  0  0  0  0  0  0  0  0  0  0  0
    4.4766   -3.8577    0.0000 H   0  0  0  0  0  0  0  0  0  0  0  0
    4.0781   -3.1674    0.0000 H   0  0  0  0  0  0  0  0  0  0  0  0
    1.9219   -3.1674    0.0000 H   0  0  0  0  0  0  0  0  0  0  0  0
    1.5234   -3.8577    0.0000 H   0  0  0  0  0  0  0  0  0  0  0  0
    4.4030   -1.0600    0.0000 H   0  0  0  0  0  0  0  0  0  0  0  0
    1.5970   -1.0600    0.0000 H   0  0  0  0  0  0  0  0  0  0  0  0
    4.4030    0.5600    0.0000 H   0  0  0  0  0  0  0  0  0  0  0  0
    1.5970    0.5600    0.0000 H   0  0  0  0  0  0  0  0  0  0  0  0
    1.5140   -4.7500    0.0000 H   0  0  0  0  0  0  0  0  0  0  0  0
    3.2460   -4.7500    0.0000 H   0  0  0  0  0  0  0  0  0  0  0  0
    3.8660   -5.3700    0.0000 H   0  0  0  0  0  0  0  0  0  0  0  0
    4.4860   -4.7500    0.0000 H   0  0  0  0  0  0  0  0  0  0  0  0
    2.1340   -5.3700    0.0000 H   0  0  0  0  0  0  0  0  0  0  0  0
    2.7540   -4.7500    0.0000 H   0  0  0  0  0  0  0  0  0  0  0  0
    2.4631    3.0600    0.0000 H   0  0  0  0  0  0  0  0  0  0  0  0
    3.3291    4.5600    0.0000 H   0  0  0  0  0  0  0  0  0  0  0  0
    6.1350    2.9400    0.0000 H   0  0  0  0  0  0  0  0  0  0  0  0
    4.7320    5.3700    0.0000 H   0  0  0  0  0  0  0  0  0  0  0  0
    6.1350    4.5600    0.0000 H   0  0  0  0  0  0  0  0  0  0  0  0
  1  6  2  0  0  0  0
  1  7  2  0  0  0  0
  1 11  1  0  0  0  0
  1 13  1  0  0  0  0
  2  8  2  0  0  0  0
  2  9  2  0  0  0  0
  2 12  1  0  0  0  0
  2 16  1  0  0  0  0
  3 29  1  0  0  0  0
  4 29  1  0  0  0  0
  5 29  1  0  0  0  0
 10 24  1  0  0  0  0
 10 29  1  0  0  0  0
 11 14  1  0  0  0  0
 11 15  1  0  0  0  0
 12 23  1  0  0  0  0
 12 44  1  0  0  0  0
 13 17  2  0  0  0  0
 13 18  1  0  0  0  0
 14 22  1  0  0  0  0
 14 32  1  0  0  0  0
 14 33  1  0  0  0  0
 15 21  1  0  0  0  0
 15 30  1  0  0  0  0
 15 31  1  0  0  0  0
 16 19  2  0  0  0  0
 16 20  1  0  0  0  0
 17 19  1  0  0  0  0
 17 34  1  0  0  0  0
 18 20  2  0  0  0  0
 18 35  1  0  0  0  0
 19 36  1  0  0  0  0
 20 37  1  0  0  0  0
 21 39  1  0  0  0  0
 21 40  1  0  0  0  0
 21 41  1  0  0  0  0
 22 38  1  0  0  0  0
 22 42  1  0  0  0  0
 22 43  1  0  0  0  0
 23 24  1  0  0  0  0
 23 25  2  0  0  0  0
 24 26  2  0  0  0  0
 25 27  1  0  0  0  0
 25 45  1  0  0  0  0
 26 28  1  0  0  0  0
 26 46  1  0  0  0  0
 27 28  2  0  0  0  0
 27 47  1  0  0  0  0
 28 48  1  0  0  0  0
M  END
> <PUBCHEM_COMPOUND_CID>
27301613

> <PUBCHEM_COMPOUND_CANONICALIZED>
1

> <PUBCHEM_CACTVS_COMPLEXITY>
720

> <PUBCHEM_CACTVS_HBOND_ACCEPTOR>
10

> <PUBCHEM_CACTVS_HBOND_DONOR>
1

> <PUBCHEM_CACTVS_ROTATABLE_BOND>
8

> <PUBCHEM_CACTVS_SUBSKEYS>
AAADceB7OYBgAAAAAAAAAAAAAAAAAAAAAAAwYAAAAAAAAAABQAAAHwQQQAAACAzB0BQyx4JABAKAACRCQHDCCBAgIgAIiBgPbIgOJiKEsZuBMCBk0BGI6AeQQAAAAAgAAAAAEAAAEAAAAAAgAAAAAAAAAA==

> <PUBCHEM_IUPAC_OPENEYE_NAME>
N4,N4-diethyl-N1-[2-(trifluoromethoxy)phenyl]benzene-1,4-disulfonamide

> <PUBCHEM_IUPAC_CAS_NAME>
N4,N4-diethyl-N1-[2-(trifluoromethoxy)phenyl]benzene-1,4-disulfonamide

> <PUBCHEM_IUPAC_NAME>
4-N,4-N-diethyl-1-N-[2-(trifluoromethoxy)phenyl]benzene-1,4-disulfonamide

> <PUBCHEM_IUPAC_SYSTEMATIC_NAME>
N4,N4-diethyl-N1-[2-(trifluoromethyloxy)phenyl]benzene-1,4-disulfonamide

> <PUBCHEM_IUPAC_TRADITIONAL_NAME>
N',N'-diethyl-N-[2-(trifluoromethoxy)phenyl]benzene-1,4-disulfonamide

> <PUBCHEM_IUPAC_INCHI>
InChI=1S/C17H19F3N2O5S2/c1-3-22(4-2)29(25,26)14-11-9-13(10-12-14)28(23,24)21-15-7-5-6-8-16(15)27-17(18,19)20/h5-12,21H,3-4H2,1-2H3

> <PUBCHEM_IUPAC_INCHIKEY>
MGEAJFRMSNOGIS-UHFFFAOYSA-N

> <PUBCHEM_XLOGP3>
3.3

> <PUBCHEM_EXACT_MASS>
452.068748

> <PUBCHEM_MOLECULAR_FORMULA>
C17H19F3N2O5S2

> <PUBCHEM_MOLECULAR_WEIGHT>
452.46837

> <PUBCHEM_OPENEYE_CAN_SMILES>
CCN(CC)S(=O)(=O)C1=CC=C(C=C1)S(=O)(=O)NC2=CC=CC=C2OC(F)(F)F

> <PUBCHEM_OPENEYE_ISO_SMILES>
CCN(CC)S(=O)(=O)C1=CC=C(C=C1)S(=O)(=O)NC2=CC=CC=C2OC(F)(F)F

> <PUBCHEM_CACTVS_TPSA>
110

> <PUBCHEM_MONOISOTOPIC_WEIGHT>
452.068748

> <PUBCHEM_TOTAL_CHARGE>
0

> <PUBCHEM_HEAVY_ATOM_COUNT>
29

> <PUBCHEM_ATOM_DEF_STEREO_COUNT>
0

> <PUBCHEM_ATOM_UDEF_STEREO_COUNT>
0

> <PUBCHEM_BOND_DEF_STEREO_COUNT>
0

> <PUBCHEM_BOND_UDEF_STEREO_COUNT>
0

> <PUBCHEM_ISOTOPIC_ATOM_COUNT>
0

> <PUBCHEM_COMPONENT_COUNT>
1

> <PUBCHEM_CACTVS_TAUTO_COUNT>
1

> <PUBCHEM_COORDINATE_TYPE>
1
5
255

> <PUBCHEM_BONDANNOTATIONS>
13  17  8
13  18  8
16  19  8
16  20  8
17  19  8
18  20  8
23  24  8
23  25  8
24  26  8
25  27  8
26  28  8
27  28  8

$$$$
27301622
  -OEChem-12041211322D

 37 38  0     0  0  0  0  0  0999 V2000
    4.5981    0.7500    0.0000 S   0  0  0  0  0  0  0  0  0  0  0  0
    8.0622   -0.2500    0.0000 F   0  0  0  0  0  0  0  0  0  0  0  0
    7.6962    1.1160    0.0000 F   0  0  0  0  0  0  0  0  0  0  0  0
    6.6962   -0.6160    0.0000 F   0  0  0  0  0  0  0  0  0  0  0  0
    5.5981    0.7500    0.0000 O   0  0  0  0  0  0  0  0  0  0  0  0
    3.5981    0.7500    0.0000 O   0  0  0  0  0  0  0  0  0  0  0  0
    4.5981   -3.2500    0.0000 O   0  0  0  0  0  0  0  0  0  0  0  0
    6.3301    0.7500    0.0000 O   0  0  0  0  0  0  0  0  0  0  0  0
    2.0000   -1.7500    0.0000 O   0  5  0  0  0  0  0  0  0  0  0  0
    2.8660   -3.2500    0.0000 O   0  0  0  0  0  0  0  0  0  0  0  0
    4.5981    1.7500    0.0000 N   0  0  0  0  0  0  0  0  0  0  0  0
    2.8660   -2.2500    0.0000 N   0  3  0  0  0  0  0  0  0  0  0  0
    4.5981   -0.2500    0.0000 C   0  0  0  0  0  0  0  0  0  0  0  0
    5.4641    2.2500    0.0000 C   0  0  0  0  0  0  0  0  0  0  0  0
    3.7321   -0.7500    0.0000 C   0  0  0  0  0  0  0  0  0  0  0  0
    5.4641   -0.7500    0.0000 C   0  0  0  0  0  0  0  0  0  0  0  0
    3.7321   -1.7500    0.0000 C   0  0  0  0  0  0  0  0  0  0  0  0
    4.5981   -2.2500    0.0000 C   0  0  0  0  0  0  0  0  0  0  0  0
    5.4641   -1.7500    0.0000 C   0  0  0  0  0  0  0  0  0  0  0  0
    6.3301    1.7500    0.0000 C   0  0  0  0  0  0  0  0  0  0  0  0
    5.4641    3.2500    0.0000 C   0  0  0  0  0  0  0  0  0  0  0  0
    7.1962    2.2500    0.0000 C   0  0  0  0  0  0  0  0  0  0  0  0
    6.3301    3.7500    0.0000 C   0  0  0  0  0  0  0  0  0  0  0  0
    7.1962    3.2500    0.0000 C   0  0  0  0  0  0  0  0  0  0  0  0
    5.4641   -3.7500    0.0000 C   0  0  0  0  0  0  0  0  0  0  0  0
    7.1962    0.2500    0.0000 C   0  0  0  0  0  0  0  0  0  0  0  0
    4.0611    2.0600    0.0000 H   0  0  0  0  0  0  0  0  0  0  0  0
    3.1951   -0.4400    0.0000 H   0  0  0  0  0  0  0  0  0  0  0  0
    6.0010   -0.4400    0.0000 H   0  0  0  0  0  0  0  0  0  0  0  0
    6.0010   -2.0600    0.0000 H   0  0  0  0  0  0  0  0  0  0  0  0
    4.9272    3.5600    0.0000 H   0  0  0  0  0  0  0  0  0  0  0  0
    7.7331    1.9400    0.0000 H   0  0  0  0  0  0  0  0  0  0  0  0
    6.3301    4.3700    0.0000 H   0  0  0  0  0  0  0  0  0  0  0  0
    7.7331    3.5600    0.0000 H   0  0  0  0  0  0  0  0  0  0  0  0
    5.1541   -4.2869    0.0000 H   0  0  0  0  0  0  0  0  0  0  0  0
    6.0010   -4.0600    0.0000 H   0  0  0  0  0  0  0  0  0  0  0  0
    5.7741   -3.2131    0.0000 H   0  0  0  0  0  0  0  0  0  0  0  0
  1  5  2  0  0  0  0
  1  6  2  0  0  0  0
  1 11  1  0  0  0  0
  1 13  1  0  0  0  0
  2 26  1  0  0  0  0
  3 26  1  0  0  0  0
  4 26  1  0  0  0  0
  7 18  1  0  0  0  0
  7 25  1  0  0  0  0
  8 20  1  0  0  0  0
  8 26  1  0  0  0  0
  9 12  1  0  0  0  0
 10 12  2  0  0  0  0
 11 14  1  0  0  0  0
 11 27  1  0  0  0  0
 12 17  1  0  0  0  0
 13 15  2  0  0  0  0
 13 16  1  0  0  0  0
 14 20  1  0  0  0  0
 14 21  2  0  0  0  0
 15 17  1  0  0  0  0
 15 28  1  0  0  0  0
 16 19  2  0  0  0  0
 16 29  1  0  0  0  0
 17 18  2  0  0  0  0
 18 19  1  0  0  0  0
 19 30  1  0  0  0  0
 20 22  2  0  0  0  0
 21 23  1  0  0  0  0
 21 31  1  0  0  0  0
 22 24  1  0  0  0  0
 22 32  1  0  0  0  0
 23 24  2  0  0  0  0
 23 33  1  0  0  0  0
 24 34  1  0  0  0  0
 25 35  1  0  0  0  0
 25 36  1  0  0  0  0
 25 37  1  0  0  0  0
M  CHG  2   9  -1  12   1
M  END
> <PUBCHEM_COMPOUND_CID>
27301622

> <PUBCHEM_COMPOUND_CANONICALIZED>
1

> <PUBCHEM_CACTVS_COMPLEXITY>
589

> <PUBCHEM_CACTVS_HBOND_ACCEPTOR>
10

> <PUBCHEM_CACTVS_HBOND_DONOR>
1

> <PUBCHEM_CACTVS_ROTATABLE_BOND>
5

> <PUBCHEM_CACTVS_SUBSKEYS>
AAADccBzOYBAAAAAAAAAAAAAAAAAAAAAAAAwYAAAAAAAAAABQAAAHwQUQAAACAyB0BIyx4BQRAKBACRCQ3DCCBAgIgAoiBgHbIoOJiKEsZuBMCRk0FEI6AeQQAAAAIAAACAAEAABAAAAQAAgAAAAAAAAAA==

> <PUBCHEM_IUPAC_OPENEYE_NAME>
4-methoxy-3-nitro-N-[2-(trifluoromethoxy)phenyl]benzenesulfonamide

> <PUBCHEM_IUPAC_CAS_NAME>
4-methoxy-3-nitro-N-[2-(trifluoromethoxy)phenyl]benzenesulfonamide

> <PUBCHEM_IUPAC_NAME>
4-methoxy-3-nitro-N-[2-(trifluoromethoxy)phenyl]benzenesulfonamide

> <PUBCHEM_IUPAC_SYSTEMATIC_NAME>
4-methoxy-3-nitro-N-[2-(trifluoromethyloxy)phenyl]benzenesulfonamide

> <PUBCHEM_IUPAC_TRADITIONAL_NAME>
4-methoxy-3-nitro-N-[2-(trifluoromethoxy)phenyl]benzenesulfonamide

> <PUBCHEM_IUPAC_INCHI>
InChI=1S/C14H11F3N2O6S/c1-24-13-7-6-9(8-11(13)19(20)21)26(22,23)18-10-4-2-3-5-12(10)25-14(15,16)17/h2-8,18H,1H3

> <PUBCHEM_IUPAC_INCHIKEY>
WIZKIRJIOAGBQJ-UHFFFAOYSA-N

> <PUBCHEM_XLOGP3>
3.3

> <PUBCHEM_EXACT_MASS>
392.028992

> <PUBCHEM_MOLECULAR_FORMULA>
C14H11F3N2O6S

> <PUBCHEM_MOLECULAR_WEIGHT>
392.30715

> <PUBCHEM_OPENEYE_CAN_SMILES>
COC1=C(C=C(C=C1)S(=O)(=O)NC2=CC=CC=C2OC(F)(F)F)[N+](=O)[O-]

> <PUBCHEM_OPENEYE_ISO_SMILES>
COC1=C(C=C(C=C1)S(=O)(=O)NC2=CC=CC=C2OC(F)(F)F)[N+](=O)[O-]

> <PUBCHEM_CACTVS_TPSA>
119

> <PUBCHEM_MONOISOTOPIC_WEIGHT>
392.028992

> <PUBCHEM_TOTAL_CHARGE>
0

> <PUBCHEM_HEAVY_ATOM_COUNT>
26

> <PUBCHEM_ATOM_DEF_STEREO_COUNT>
0

> <PUBCHEM_ATOM_UDEF_STEREO_COUNT>
0

> <PUBCHEM_BOND_DEF_STEREO_COUNT>
0

> <PUBCHEM_BOND_UDEF_STEREO_COUNT>
0

> <PUBCHEM_ISOTOPIC_ATOM_COUNT>
0

> <PUBCHEM_COMPONENT_COUNT>
1

> <PUBCHEM_CACTVS_TAUTO_COUNT>
1

> <PUBCHEM_COORDINATE_TYPE>
1
5
255

> <PUBCHEM_BONDANNOTATIONS>
13  15  8
13  16  8
14  20  8
14  21  8
15  17  8
16  19  8
17  18  8
18  19  8
20  22  8
21  23  8
22  24  8
23  24  8

$$$$
27301708
  -OEChem-12041211322D

 36 37  0     0  0  0  0  0  0999 V2000
    3.0000    1.1550    0.0000 S   0  0  0  0  0  0  0  0  0  0  0  0
    3.0000   -2.8450    0.0000 S   0  0  0  0  0  0  0  0  0  0  0  0
    6.4641    0.1550    0.0000 F   0  0  0  0  0  0  0  0  0  0  0  0
    6.0981    1.5210    0.0000 F   0  0  0  0  0  0  0  0  0  0  0  0
    5.0981   -0.2110    0.0000 F   0  0  0  0  0  0  0  0  0  0  0  0
    4.0000    1.1550    0.0000 O   0  0  0  0  0  0  0  0  0  0  0  0
    2.0000    1.1550    0.0000 O   0  0  0  0  0  0  0  0  0  0  0  0
    4.7321    1.1550    0.0000 O   0  0  0  0  0  0  0  0  0  0  0  0
    2.0000   -2.8450    0.0000 O   0  0  0  0  0  0  0  0  0  0  0  0
    4.0000   -2.8450    0.0000 O   0  0  0  0  0  0  0  0  0  0  0  0
    3.0000    2.1550    0.0000 N   0  0  0  0  0  0  0  0  0  0  0  0
    3.0000   -3.8450    0.0000 N   0  0  0  0  0  0  0  0  0  0  0  0
    3.0000    0.1550    0.0000 C   0  0  0  0  0  0  0  0  0  0  0  0
    3.0000   -1.8450    0.0000 C   0  0  0  0  0  0  0  0  0  0  0  0
    2.1340   -0.3450    0.0000 C   0  0  0  0  0  0  0  0  0  0  0  0
    3.8660   -0.3450    0.0000 C   0  0  0  0  0  0  0  0  0  0  0  0
    3.8660    2.6550    0.0000 C   0  0  0  0  0  0  0  0  0  0  0  0
    2.1340   -1.3450    0.0000 C   0  0  0  0  0  0  0  0  0  0  0  0
    3.8660   -1.3450    0.0000 C   0  0  0  0  0  0  0  0  0  0  0  0
    4.7321    2.1550    0.0000 C   0  0  0  0  0  0  0  0  0  0  0  0
    3.8660    3.6550    0.0000 C   0  0  0  0  0  0  0  0  0  0  0  0
    5.5981    2.6550    0.0000 C   0  0  0  0  0  0  0  0  0  0  0  0
    4.7321    4.1550    0.0000 C   0  0  0  0  0  0  0  0  0  0  0  0
    5.5981    3.6550    0.0000 C   0  0  0  0  0  0  0  0  0  0  0  0
    5.5981    0.6550    0.0000 C   0  0  0  0  0  0  0  0  0  0  0  0
    2.4631    2.4650    0.0000 H   0  0  0  0  0  0  0  0  0  0  0  0
    1.5970   -0.0350    0.0000 H   0  0  0  0  0  0  0  0  0  0  0  0
    4.4030   -0.0350    0.0000 H   0  0  0  0  0  0  0  0  0  0  0  0
    1.5970   -1.6550    0.0000 H   0  0  0  0  0  0  0  0  0  0  0  0
    4.4030   -1.6550    0.0000 H   0  0  0  0  0  0  0  0  0  0  0  0
    3.3291    3.9650    0.0000 H   0  0  0  0  0  0  0  0  0  0  0  0
    6.1350    2.3450    0.0000 H   0  0  0  0  0  0  0  0  0  0  0  0
    4.7321    4.7750    0.0000 H   0  0  0  0  0  0  0  0  0  0  0  0
    6.1350    3.9650    0.0000 H   0  0  0  0  0  0  0  0  0  0  0  0
    2.4631   -4.1550    0.0000 H   0  0  0  0  0  0  0  0  0  0  0  0
    3.5369   -4.1550    0.0000 H   0  0  0  0  0  0  0  0  0  0  0  0
  1  6  2  0  0  0  0
  1  7  2  0  0  0  0
  1 11  1  0  0  0  0
  1 13  1  0  0  0  0
  2  9  2  0  0  0  0
  2 10  2  0  0  0  0
  2 12  1  0  0  0  0
  2 14  1  0  0  0  0
  3 25  1  0  0  0  0
  4 25  1  0  0  0  0
  5 25  1  0  0  0  0
  8 20  1  0  0  0  0
  8 25  1  0  0  0  0
 11 17  1  0  0  0  0
 11 26  1  0  0  0  0
 12 35  1  0  0  0  0
 12 36  1  0  0  0  0
 13 15  2  0  0  0  0
 13 16  1  0  0  0  0
 14 18  2  0  0  0  0
 14 19  1  0  0  0  0
 15 18  1  0  0  0  0
 15 27  1  0  0  0  0
 16 19  2  0  0  0  0
 16 28  1  0  0  0  0
 17 20  1  0  0  0  0
 17 21  2  0  0  0  0
 18 29  1  0  0  0  0
 19 30  1  0  0  0  0
 20 22  2  0  0  0  0
 21 23  1  0  0  0  0
 21 31  1  0  0  0  0
 22 24  1  0  0  0  0
 22 32  1  0  0  0  0
 23 24  2  0  0  0  0
 23 33  1  0  0  0  0
 24 34  1  0  0  0  0
M  END
> <PUBCHEM_COMPOUND_CID>
27301708

> <PUBCHEM_COMPOUND_CANONICALIZED>
1

> <PUBCHEM_CACTVS_COMPLEXITY>
647

> <PUBCHEM_CACTVS_HBOND_ACCEPTOR>
10

> <PUBCHEM_CACTVS_HBOND_DONOR>
2

> <PUBCHEM_CACTVS_ROTATABLE_BOND>
5

> <PUBCHEM_CACTVS_SUBSKEYS>
AAADccBzOYBgAAAAAAAAAAAAAAAAAAAAAAAwYAAAAAAAAAABQAAAHwQQQAAACAyB0BAwx4BABAKAACRCQHDCCBAgIgAIiBgHbIgOJiKEsZuBMCBk0BEI6AeQQAAAAAgAAAAAEAAAEAAAAAAgAAAAAAAAAA==

> <PUBCHEM_IUPAC_OPENEYE_NAME>
N4-[2-(trifluoromethoxy)phenyl]benzene-1,4-disulfonamide

> <PUBCHEM_IUPAC_CAS_NAME>
N4-[2-(trifluoromethoxy)phenyl]benzene-1,4-disulfonamide

> <PUBCHEM_IUPAC_NAME>
4-N-[2-(trifluoromethoxy)phenyl]benzene-1,4-disulfonamide

> <PUBCHEM_IUPAC_SYSTEMATIC_NAME>
N4-[2-(trifluoromethyloxy)phenyl]benzene-1,4-disulfonamide

> <PUBCHEM_IUPAC_TRADITIONAL_NAME>
N'-[2-(trifluoromethoxy)phenyl]benzene-1,4-disulfonamide

> <PUBCHEM_IUPAC_INCHI>
InChI=1S/C13H11F3N2O5S2/c14-13(15,16)23-12-4-2-1-3-11(12)18-25(21,22)10-7-5-9(6-8-10)24(17,19)20/h1-8,18H,(H2,17,19,20)

> <PUBCHEM_IUPAC_INCHIKEY>
VDIUEBRECCWSCY-UHFFFAOYSA-N

> <PUBCHEM_XLOGP3>
2

> <PUBCHEM_EXACT_MASS>
396.006148

> <PUBCHEM_MOLECULAR_FORMULA>
C13H11F3N2O5S2

> <PUBCHEM_MOLECULAR_WEIGHT>
396.36205

> <PUBCHEM_OPENEYE_CAN_SMILES>
C1=CC=C(C(=C1)NS(=O)(=O)C2=CC=C(C=C2)S(=O)(=O)N)OC(F)(F)F

> <PUBCHEM_OPENEYE_ISO_SMILES>
C1=CC=C(C(=C1)NS(=O)(=O)C2=CC=C(C=C2)S(=O)(=O)N)OC(F)(F)F

> <PUBCHEM_CACTVS_TPSA>
132

> <PUBCHEM_MONOISOTOPIC_WEIGHT>
396.006148

> <PUBCHEM_TOTAL_CHARGE>
0

> <PUBCHEM_HEAVY_ATOM_COUNT>
25

> <PUBCHEM_ATOM_DEF_STEREO_COUNT>
0

> <PUBCHEM_ATOM_UDEF_STEREO_COUNT>
0

> <PUBCHEM_BOND_DEF_STEREO_COUNT>
0

> <PUBCHEM_BOND_UDEF_STEREO_COUNT>
0

> <PUBCHEM_ISOTOPIC_ATOM_COUNT>
0

> <PUBCHEM_COMPONENT_COUNT>
1

> <PUBCHEM_CACTVS_TAUTO_COUNT>
1

> <PUBCHEM_COORDINATE_TYPE>
1
5
255

> <PUBCHEM_BONDANNOTATIONS>
13  15  8
13  16  8
14  18  8
14  19  8
15  18  8
16  19  8
17  20  8
17  21  8
20  22  8
21  23  8
22  24  8
23  24  8

$$$$
27311807
  -OEChem-12041211332D

 28 29  0     0  0  0  0  0  0999 V2000
    4.5981    1.9400    0.0000 N   0  3  0  0  0  0  0  0  0  0  0  0
    4.5981    0.9400    0.0000 C   0  0  0  0  0  0  0  0  0  0  0  0
    5.5981    0.9400    0.0000 C   0  0  0  0  0  0  0  0  0  0  0  0
    5.0981    0.0740    0.0000 C   0  0  0  0  0  0  0  0  0  0  0  0
    3.7320    0.4400    0.0000 C   0  0  0  0  0  0  0  0  0  0  0  0
    3.7320   -0.5600    0.0000 C   0  0  0  0  0  0  0  0  0  0  0  0
    2.8660   -1.0600    0.0000 C   0  0  0  0  0  0  0  0  0  0  0  0
    4.5981   -1.0600    0.0000 C   0  0  0  0  0  0  0  0  0  0  0  0
    2.8660   -2.0600    0.0000 C   0  0  0  0  0  0  0  0  0  0  0  0
    2.0000   -0.5600    0.0000 C   0  0  0  0  0  0  0  0  0  0  0  0
    4.5981   -2.0600    0.0000 C   0  0  0  0  0  0  0  0  0  0  0  0
    3.7320   -2.5600    0.0000 C   0  0  0  0  0  0  0  0  0  0  0  0
    6.1807    0.7279    0.0000 H   0  0  0  0  0  0  0  0  0  0  0  0
    5.7057    1.5506    0.0000 H   0  0  0  0  0  0  0  0  0  0  0  0
    4.6231   -0.3246    0.0000 H   0  0  0  0  0  0  0  0  0  0  0  0
    5.5730   -0.3246    0.0000 H   0  0  0  0  0  0  0  0  0  0  0  0
    3.5200    1.0226    0.0000 H   0  0  0  0  0  0  0  0  0  0  0  0
    3.1215    0.3323    0.0000 H   0  0  0  0  0  0  0  0  0  0  0  0
    4.5981    2.5600    0.0000 H   0  0  0  0  0  0  0  0  0  0  0  0
    3.9781    1.9400    0.0000 H   0  0  0  0  0  0  0  0  0  0  0  0
    5.2181    1.9400    0.0000 H   0  0  0  0  0  0  0  0  0  0  0  0
    5.1350   -0.7500    0.0000 H   0  0  0  0  0  0  0  0  0  0  0  0
    2.3291   -2.3700    0.0000 H   0  0  0  0  0  0  0  0  0  0  0  0
    2.3100   -0.0231    0.0000 H   0  0  0  0  0  0  0  0  0  0  0  0
    1.4631   -0.2500    0.0000 H   0  0  0  0  0  0  0  0  0  0  0  0
    1.6900   -1.0969    0.0000 H   0  0  0  0  0  0  0  0  0  0  0  0
    5.1350   -2.3700    0.0000 H   0  0  0  0  0  0  0  0  0  0  0  0
    3.7320   -3.1800    0.0000 H   0  0  0  0  0  0  0  0  0  0  0  0
  1  2  1  0  0  0  0
  1 19  1  0  0  0  0
  1 20  1  0  0  0  0
  1 21  1  0  0  0  0
  2  3  1  0  0  0  0
  2  4  1  0  0  0  0
  2  5  1  0  0  0  0
  3  4  1  0  0  0  0
  3 13  1  0  0  0  0
  3 14  1  0  0  0  0
  4 15  1  0  0  0  0
  4 16  1  0  0  0  0
  5  6  1  0  0  0  0
  5 17  1  0  0  0  0
  5 18  1  0  0  0  0
  6  7  1  0  0  0  0
  6  8  2  0  0  0  0
  7  9  2  0  0  0  0
  7 10  1  0  0  0  0
  8 11  1  0  0  0  0
  8 22  1  0  0  0  0
  9 12  1  0  0  0  0
  9 23  1  0  0  0  0
 10 24  1  0  0  0  0
 10 25  1  0  0  0  0
 10 26  1  0  0  0  0
 11 12  2  0  0  0  0
 11 27  1  0  0  0  0
 12 28  1  0  0  0  0
M  CHG  1   1   1
M  END
> <PUBCHEM_COMPOUND_CID>
27311807

> <PUBCHEM_COMPOUND_CANONICALIZED>
1

> <PUBCHEM_CACTVS_COMPLEXITY>
160

> <PUBCHEM_CACTVS_HBOND_ACCEPTOR>
0

> <PUBCHEM_CACTVS_HBOND_DONOR>
1

> <PUBCHEM_CACTVS_ROTATABLE_BOND>
2

> <PUBCHEM_CACTVS_SUBSKEYS>
AAADceByAAAAAAAAAAAAAAAAGAAAAAAAAAAwAAAAAAAAAAABAAAAHAAQAAAADIiBGAAyAIBAAACAAiBCAAACAAAgAAAIiAAAAIgIICKAkRGAIAAgkAAIiAcQgMAOgAAAAAAQAAAAAAAAACAAAAAAAAAAAA==

> <PUBCHEM_IUPAC_OPENEYE_NAME>
[1-(o-tolylmethyl)cyclopropyl]ammonium

> <PUBCHEM_IUPAC_CAS_NAME>
[1-[(2-methylphenyl)methyl]cyclopropyl]ammonium

> <PUBCHEM_IUPAC_NAME>
[1-[(2-methylphenyl)methyl]cyclopropyl]azanium

> <PUBCHEM_IUPAC_SYSTEMATIC_NAME>
[1-[(2-methylphenyl)methyl]cyclopropyl]azanium

> <PUBCHEM_IUPAC_TRADITIONAL_NAME>
[1-(2-methylbenzyl)cyclopropyl]ammonium

> <PUBCHEM_IUPAC_INCHI>
InChI=1S/C11H15N/c1-9-4-2-3-5-10(9)8-11(12)6-7-11/h2-5H,6-8,12H2,1H3/p+1

> <PUBCHEM_IUPAC_INCHIKEY>
LXAZOYCJEVVBHV-UHFFFAOYSA-O

> <PUBCHEM_XLOGP3>
2.4

> <PUBCHEM_EXACT_MASS>
162.128275

> <PUBCHEM_MOLECULAR_FORMULA>
C11H16N+

> <PUBCHEM_MOLECULAR_WEIGHT>
162.25144

> <PUBCHEM_OPENEYE_CAN_SMILES>
CC1=CC=CC=C1CC2(CC2)[NH3+]

> <PUBCHEM_OPENEYE_ISO_SMILES>
CC1=CC=CC=C1CC2(CC2)[NH3+]

> <PUBCHEM_CACTVS_TPSA>
27.6

> <PUBCHEM_MONOISOTOPIC_WEIGHT>
162.128275

> <PUBCHEM_TOTAL_CHARGE>
1

> <PUBCHEM_HEAVY_ATOM_COUNT>
12

> <PUBCHEM_ATOM_DEF_STEREO_COUNT>
0

> <PUBCHEM_ATOM_UDEF_STEREO_COUNT>
0

> <PUBCHEM_BOND_DEF_STEREO_COUNT>
0

> <PUBCHEM_BOND_UDEF_STEREO_COUNT>
0

> <PUBCHEM_ISOTOPIC_ATOM_COUNT>
0

> <PUBCHEM_COMPONENT_COUNT>
1

> <PUBCHEM_CACTVS_TAUTO_COUNT>
1

> <PUBCHEM_COORDINATE_TYPE>
1
5
255

> <PUBCHEM_BONDANNOTATIONS>
11  12  8
6  7  8
6  8  8
7  9  8
8  11  8
9  12  8

$$$$
