35806650
  -OEChem-03061303092D

 48 50  0     0  0  0  0  0  0999 V2000
    7.9245   -1.0707    0.0000 O   0  0  0  0  0  0  0  0  0  0  0  0
    4.6783   -4.2493    0.0000 N   0  0  0  0  0  0  0  0  0  0  0  0
    7.5673    0.6241    0.0000 N   0  0  0  0  0  0  0  0  0  0  0  0
    4.9889   -1.6893    0.0000 C   0  0  0  0  0  0  0  0  0  0  0  0
    5.9674   -1.4831    0.0000 C   0  0  0  0  0  0  0  0  0  0  0  0
    4.6783   -2.6399    0.0000 C   0  0  0  0  0  0  0  0  0  0  0  0
    3.7321   -2.9446    0.0000 C   0  0  0  0  0  0  0  0  0  0  0  0
    6.2781   -0.5326    0.0000 C   0  0  0  0  0  0  0  0  0  0  0  0
    3.7321   -3.9446    0.0000 C   0  0  0  0  0  0  0  0  0  0  0  0
    5.2619   -3.4446    0.0000 C   0  0  0  0  0  0  0  0  0  0  0  0
    8.8564    1.7809    0.0000 C   0  0  0  0  0  0  0  0  0  0  0  0
    8.5458    0.8304    0.0000 C   0  0  0  0  0  0  0  0  0  0  0  0
    9.8349    1.9871    0.0000 C   0  0  0  0  0  0  0  0  0  0  0  0
    7.2566   -0.3264    0.0000 C   0  0  0  0  0  0  0  0  0  0  0  0
    2.8660   -2.4446    0.0000 C   0  0  0  0  0  0  0  0  0  0  0  0
    2.8660   -4.4446    0.0000 C   0  0  0  0  0  0  0  0  0  0  0  0
   10.1456    2.9376    0.0000 C   0  0  0  0  0  0  0  0  0  0  0  0
    2.0000   -2.9446    0.0000 C   0  0  0  0  0  0  0  0  0  0  0  0
    2.0000   -3.9446    0.0000 C   0  0  0  0  0  0  0  0  0  0  0  0
    9.4778    3.6819    0.0000 C   0  0  0  0  0  0  0  0  0  0  0  0
   11.1241    3.1438    0.0000 C   0  0  0  0  0  0  0  0  0  0  0  0
    9.7884    4.6324    0.0000 C   0  0  0  0  0  0  0  0  0  0  0  0
   11.4348    4.0944    0.0000 C   0  0  0  0  0  0  0  0  0  0  0  0
   10.7669    4.8387    0.0000 C   0  0  0  0  0  0  0  0  0  0  0  0
    4.9684   -1.0697    0.0000 H   0  0  0  0  0  0  0  0  0  0  0  0
    4.3751   -1.6020    0.0000 H   0  0  0  0  0  0  0  0  0  0  0  0
    5.9880   -2.1028    0.0000 H   0  0  0  0  0  0  0  0  0  0  0  0
    6.5813   -1.5705    0.0000 H   0  0  0  0  0  0  0  0  0  0  0  0
    6.2575    0.0871    0.0000 H   0  0  0  0  0  0  0  0  0  0  0  0
    5.6643   -0.4453    0.0000 H   0  0  0  0  0  0  0  0  0  0  0  0
    5.8819   -3.4446    0.0000 H   0  0  0  0  0  0  0  0  0  0  0  0
    8.8359    2.4005    0.0000 H   0  0  0  0  0  0  0  0  0  0  0  0
    8.2426    1.8682    0.0000 H   0  0  0  0  0  0  0  0  0  0  0  0
    8.5663    0.2107    0.0000 H   0  0  0  0  0  0  0  0  0  0  0  0
    9.1596    0.7430    0.0000 H   0  0  0  0  0  0  0  0  0  0  0  0
    4.8709   -4.8387    0.0000 H   0  0  0  0  0  0  0  0  0  0  0  0
    9.8555    1.3674    0.0000 H   0  0  0  0  0  0  0  0  0  0  0  0
   10.4488    1.8997    0.0000 H   0  0  0  0  0  0  0  0  0  0  0  0
    7.1532    1.0856    0.0000 H   0  0  0  0  0  0  0  0  0  0  0  0
    2.8660   -1.8246    0.0000 H   0  0  0  0  0  0  0  0  0  0  0  0
    2.8660   -5.0646    0.0000 H   0  0  0  0  0  0  0  0  0  0  0  0
    1.4631   -2.6346    0.0000 H   0  0  0  0  0  0  0  0  0  0  0  0
    1.4631   -4.2546    0.0000 H   0  0  0  0  0  0  0  0  0  0  0  0
    8.8711    3.5541    0.0000 H   0  0  0  0  0  0  0  0  0  0  0  0
   11.5382    2.6824    0.0000 H   0  0  0  0  0  0  0  0  0  0  0  0
    9.3744    5.0939    0.0000 H   0  0  0  0  0  0  0  0  0  0  0  0
   12.0414    4.2222    0.0000 H   0  0  0  0  0  0  0  0  0  0  0  0
   10.9595    5.4280    0.0000 H   0  0  0  0  0  0  0  0  0  0  0  0
  1 14  2  0  0  0  0
  2  9  1  0  0  0  0
  2 10  1  0  0  0  0
  2 36  1  0  0  0  0
  3 12  1  0  0  0  0
  3 14  1  0  0  0  0
  3 39  1  0  0  0  0
  4  5  1  0  0  0  0
  4  6  1  0  0  0  0
  4 25  1  0  0  0  0
  4 26  1  0  0  0  0
  5  8  1  0  0  0  0
  5 27  1  0  0  0  0
  5 28  1  0  0  0  0
  6  7  1  0  0  0  0
  6 10  2  0  0  0  0
  7  9  1  0  0  0  0
  7 15  2  0  0  0  0
  8 14  1  0  0  0  0
  8 29  1  0  0  0  0
  8 30  1  0  0  0  0
  9 16  2  0  0  0  0
 10 31  1  0  0  0  0
 11 12  1  0  0  0  0
 11 13  1  0  0  0  0
 11 32  1  0  0  0  0
 11 33  1  0  0  0  0
 12 34  1  0  0  0  0
 12 35  1  0  0  0  0
 13 17  1  0  0  0  0
 13 37  1  0  0  0  0
 13 38  1  0  0  0  0
 15 18  1  0  0  0  0
 15 40  1  0  0  0  0
 16 19  1  0  0  0  0
 16 41  1  0  0  0  0
 17 20  2  0  0  0  0
 17 21  1  0  0  0  0
 18 19  2  0  0  0  0
 18 42  1  0  0  0  0
 19 43  1  0  0  0  0
 20 22  1  0  0  0  0
 20 44  1  0  0  0  0
 21 23  2  0  0  0  0
 21 45  1  0  0  0  0
 22 24  2  0  0  0  0
 22 46  1  0  0  0  0
 23 24  1  0  0  0  0
 23 47  1  0  0  0  0
 24 48  1  0  0  0  0
M  END
> <PUBCHEM_COMPOUND_CID>
35806650

> <PUBCHEM_COMPOUND_CANONICALIZED>
1

> <PUBCHEM_CACTVS_COMPLEXITY>
378

> <PUBCHEM_CACTVS_HBOND_ACCEPTOR>
1

> <PUBCHEM_CACTVS_HBOND_DONOR>
2

> <PUBCHEM_CACTVS_ROTATABLE_BOND>
8

> <PUBCHEM_CACTVS_SUBSKEYS>
AAADceB7IAAAAAAAAAAAAAAAAAAAAWAAAAAwYAAAAAAAAFgB9AAAHgAQAAAADAjBngQ8wPLJkACoAzV3VACCgCAxAiAI2aE4ZJgIIPLAkZGEIAhglgDIyAcYiMCOgAAAAAACAAAAAAAAAAQAAAAAAAAAAA==

> <PUBCHEM_IUPAC_OPENEYE_NAME>
4-(1H-indol-3-yl)-N-(3-phenylpropyl)butanamide

> <PUBCHEM_IUPAC_CAS_NAME>
4-(1H-indol-3-yl)-N-(3-phenylpropyl)butanamide

> <PUBCHEM_IUPAC_NAME>
4-(1H-indol-3-yl)-N-(3-phenylpropyl)butanamide

> <PUBCHEM_IUPAC_SYSTEMATIC_NAME>
4-(1H-indol-3-yl)-N-(3-phenylpropyl)butanamide

> <PUBCHEM_IUPAC_TRADITIONAL_NAME>
4-(1H-indol-3-yl)-N-(3-phenylpropyl)butyramide

> <PUBCHEM_IUPAC_INCHI>
InChI=1S/C21H24N2O/c24-21(22-15-7-10-17-8-2-1-3-9-17)14-6-11-18-16-23-20-13-5-4-12-19(18)20/h1-5,8-9,12-13,16,23H,6-7,10-11,14-15H2,(H,22,24)

> <PUBCHEM_IUPAC_INCHIKEY>
IKSXREDKRBWWDQ-UHFFFAOYSA-N

> <PUBCHEM_XLOGP3>
4.4

> <PUBCHEM_EXACT_MASS>
320.188863

> <PUBCHEM_MOLECULAR_FORMULA>
C21H24N2O

> <PUBCHEM_MOLECULAR_WEIGHT>
320.42806

> <PUBCHEM_OPENEYE_CAN_SMILES>
C1=CC=C(C=C1)CCCNC(=O)CCCC2=CNC3=CC=CC=C32

> <PUBCHEM_OPENEYE_ISO_SMILES>
C1=CC=C(C=C1)CCCNC(=O)CCCC2=CNC3=CC=CC=C32

> <PUBCHEM_CACTVS_TPSA>
44.9

> <PUBCHEM_MONOISOTOPIC_WEIGHT>
320.188863

> <PUBCHEM_TOTAL_CHARGE>
0

> <PUBCHEM_HEAVY_ATOM_COUNT>
24

> <PUBCHEM_ATOM_DEF_STEREO_COUNT>
0

> <PUBCHEM_ATOM_UDEF_STEREO_COUNT>
0

> <PUBCHEM_BOND_DEF_STEREO_COUNT>
0

> <PUBCHEM_BOND_UDEF_STEREO_COUNT>
0

> <PUBCHEM_ISOTOPIC_ATOM_COUNT>
0

> <PUBCHEM_COMPONENT_COUNT>
1

> <PUBCHEM_CACTVS_TAUTO_COUNT>
2

> <PUBCHEM_COORDINATE_TYPE>
1
5
255

> <PUBCHEM_BONDANNOTATIONS>
15  18  8
16  19  8
17  20  8
17  21  8
18  19  8
2  10  8
2  9  8
20  22  8
21  23  8
22  24  8
23  24  8
6  10  8
6  7  8
7  15  8
7  9  8
9  16  8

$$$$
