61447631
  -OEChem-11301218212D

 42 44  0     1  0  0  0  0  0999 V2000
    4.5981    0.4470    0.0000 O   0  0  0  0  0  0  0  0  0  0  0  0
    2.8660    0.4470    0.0000 N   0  0  0  0  0  0  0  0  0  0  0  0
    5.5443   -2.8577    0.0000 N   0  0  0  0  0  0  0  0  0  0  0  0
    2.8660    1.4470    0.0000 C   0  0  3  0  0  0  0  0  0  0  0  0
    3.7320    2.9470    0.0000 C   0  0  3  0  0  0  0  0  0  0  0  0
    3.7320    1.9470    0.0000 C   0  0  0  0  0  0  0  0  0  0  0  0
    2.0000    1.9470    0.0000 C   0  0  0  0  0  0  0  0  0  0  0  0
    2.8660    3.4470    0.0000 C   0  0  0  0  0  0  0  0  0  0  0  0
    2.0000    2.9470    0.0000 C   0  0  0  0  0  0  0  0  0  0  0  0
    4.5981    3.4470    0.0000 C   0  0  0  0  0  0  0  0  0  0  0  0
    3.7320   -0.0530    0.0000 C   0  0  0  0  0  0  0  0  0  0  0  0
    2.0000   -0.0530    0.0000 C   0  0  0  0  0  0  0  0  0  0  0  0
    3.7320   -1.0530    0.0000 C   0  0  0  0  0  0  0  0  0  0  0  0
    4.5981   -1.5530    0.0000 C   0  0  0  0  0  0  0  0  0  0  0  0
    2.8660   -1.5530    0.0000 C   0  0  0  0  0  0  0  0  0  0  0  0
    4.5981   -2.5530    0.0000 C   0  0  0  0  0  0  0  0  0  0  0  0
    5.5443   -1.2482    0.0000 C   0  0  0  0  0  0  0  0  0  0  0  0
    2.8660   -2.5530    0.0000 C   0  0  0  0  0  0  0  0  0  0  0  0
    3.7320   -3.0530    0.0000 C   0  0  0  0  0  0  0  0  0  0  0  0
    6.1279   -2.0530    0.0000 C   0  0  0  0  0  0  0  0  0  0  0  0
    3.4030    1.1370    0.0000 H   0  0  0  0  0  0  0  0  0  0  0  0
    3.7320    3.5670    0.0000 H   0  0  0  0  0  0  0  0  0  0  0  0
    3.9441    1.3644    0.0000 H   0  0  0  0  0  0  0  0  0  0  0  0
    4.3426    2.0547    0.0000 H   0  0  0  0  0  0  0  0  0  0  0  0
    1.3894    2.0547    0.0000 H   0  0  0  0  0  0  0  0  0  0  0  0
    1.7880    1.3644    0.0000 H   0  0  0  0  0  0  0  0  0  0  0  0
    3.2646    3.9220    0.0000 H   0  0  0  0  0  0  0  0  0  0  0  0
    2.4675    3.9220    0.0000 H   0  0  0  0  0  0  0  0  0  0  0  0
    1.7880    3.5296    0.0000 H   0  0  0  0  0  0  0  0  0  0  0  0
    1.3894    2.8394    0.0000 H   0  0  0  0  0  0  0  0  0  0  0  0
    4.9081    2.9101    0.0000 H   0  0  0  0  0  0  0  0  0  0  0  0
    5.1350    3.7570    0.0000 H   0  0  0  0  0  0  0  0  0  0  0  0
    4.2881    3.9840    0.0000 H   0  0  0  0  0  0  0  0  0  0  0  0
    1.6900    0.4840    0.0000 H   0  0  0  0  0  0  0  0  0  0  0  0
    1.4631   -0.3630    0.0000 H   0  0  0  0  0  0  0  0  0  0  0  0
    2.3100   -0.5899    0.0000 H   0  0  0  0  0  0  0  0  0  0  0  0
    2.3291   -1.2430    0.0000 H   0  0  0  0  0  0  0  0  0  0  0  0
    5.7369   -0.6589    0.0000 H   0  0  0  0  0  0  0  0  0  0  0  0
    2.3291   -2.8630    0.0000 H   0  0  0  0  0  0  0  0  0  0  0  0
    3.7320   -3.6730    0.0000 H   0  0  0  0  0  0  0  0  0  0  0  0
    5.7369   -3.4470    0.0000 H   0  0  0  0  0  0  0  0  0  0  0  0
    6.7479   -2.0530    0.0000 H   0  0  0  0  0  0  0  0  0  0  0  0
  1 11  2  0  0  0  0
  2  4  1  0  0  0  0
  2 11  1  0  0  0  0
  2 12  1  0  0  0  0
  3 16  1  0  0  0  0
  3 20  1  0  0  0  0
  3 41  1  0  0  0  0
  4  6  1  0  0  0  0
  4  7  1  0  0  0  0
  4 21  1  0  0  0  0
  5  6  1  0  0  0  0
  5  8  1  0  0  0  0
  5 10  1  0  0  0  0
  5 22  1  0  0  0  0
  6 23  1  0  0  0  0
  6 24  1  0  0  0  0
  7  9  1  0  0  0  0
  7 25  1  0  0  0  0
  7 26  1  0  0  0  0
  8  9  1  0  0  0  0
  8 27  1  0  0  0  0
  8 28  1  0  0  0  0
  9 29  1  0  0  0  0
  9 30  1  0  0  0  0
 10 31  1  0  0  0  0
 10 32  1  0  0  0  0
 10 33  1  0  0  0  0
 11 13  1  0  0  0  0
 12 34  1  0  0  0  0
 12 35  1  0  0  0  0
 12 36  1  0  0  0  0
 13 14  2  0  0  0  0
 13 15  1  0  0  0  0
 14 16  1  0  0  0  0
 14 17  1  0  0  0  0
 15 18  2  0  0  0  0
 15 37  1  0  0  0  0
 16 19  2  0  0  0  0
 17 20  2  0  0  0  0
 17 38  1  0  0  0  0
 18 19  1  0  0  0  0
 18 39  1  0  0  0  0
 19 40  1  0  0  0  0
 20 42  1  0  0  0  0
M  END
> <PUBCHEM_COMPOUND_CID>
61447631

> <PUBCHEM_COMPOUND_CANONICALIZED>
1

> <PUBCHEM_CACTVS_COMPLEXITY>
357

> <PUBCHEM_CACTVS_HBOND_ACCEPTOR>
1

> <PUBCHEM_CACTVS_HBOND_DONOR>
1

> <PUBCHEM_CACTVS_ROTATABLE_BOND>
2

> <PUBCHEM_CACTVS_SUBSKEYS>
AAADceB7IAAAAAAAAAAAAAAAAAAAAWAAAAAwYAAAAAAAAFgB8AAAHgAQAAAADSjBngQ+wPPJkACoAzV3VACCgCA1AiAI2aE4ZNgIIPLAlZGEIQhglgDIyYcciYCOgAAAQAASAAAAAACAACQAAAAAAAAAAA==

> <PUBCHEM_IUPAC_OPENEYE_NAME>
N-methyl-N-(3-methylcyclohexyl)-1H-indole-4-carboxamide

> <PUBCHEM_IUPAC_CAS_NAME>
N-methyl-N-(3-methylcyclohexyl)-1H-indole-4-carboxamide

> <PUBCHEM_IUPAC_NAME>
N-methyl-N-(3-methylcyclohexyl)-1H-indole-4-carboxamide

> <PUBCHEM_IUPAC_SYSTEMATIC_NAME>
N-methyl-N-(3-methylcyclohexyl)-1H-indole-4-carboxamide

> <PUBCHEM_IUPAC_TRADITIONAL_NAME>
N-methyl-N-(3-methylcyclohexyl)-1H-indole-4-carboxamide

> <PUBCHEM_IUPAC_INCHI>
InChI=1S/C17H22N2O/c1-12-5-3-6-13(11-12)19(2)17(20)15-7-4-8-16-14(15)9-10-18-16/h4,7-10,12-13,18H,3,5-6,11H2,1-2H3

> <PUBCHEM_IUPAC_INCHIKEY>
UWQIIWFCIGVIJP-UHFFFAOYSA-N

> <PUBCHEM_XLOGP3>
3.5

> <PUBCHEM_EXACT_MASS>
270.173213

> <PUBCHEM_MOLECULAR_FORMULA>
C17H22N2O

> <PUBCHEM_MOLECULAR_WEIGHT>
270.36938

> <PUBCHEM_OPENEYE_CAN_SMILES>
CC1CCCC(C1)N(C)C(=O)C2=C3C=CNC3=CC=C2

> <PUBCHEM_OPENEYE_ISO_SMILES>
CC1CCCC(C1)N(C)C(=O)C2=C3C=CNC3=CC=C2

> <PUBCHEM_CACTVS_TPSA>
36.1

> <PUBCHEM_MONOISOTOPIC_WEIGHT>
270.173213

> <PUBCHEM_TOTAL_CHARGE>
0

> <PUBCHEM_HEAVY_ATOM_COUNT>
20

> <PUBCHEM_ATOM_DEF_STEREO_COUNT>
0

> <PUBCHEM_ATOM_UDEF_STEREO_COUNT>
2

> <PUBCHEM_BOND_DEF_STEREO_COUNT>
0

> <PUBCHEM_BOND_UDEF_STEREO_COUNT>
0

> <PUBCHEM_ISOTOPIC_ATOM_COUNT>
0

> <PUBCHEM_COMPONENT_COUNT>
1

> <PUBCHEM_CACTVS_TAUTO_COUNT>
3

> <PUBCHEM_COORDINATE_TYPE>
1
5
255

> <PUBCHEM_BONDANNOTATIONS>
13  14  8
13  15  8
14  16  8
14  17  8
15  18  8
16  19  8
17  20  8
18  19  8
4  2  3
3  16  8
3  20  8
5  10  3

$$$$
