61650751
  -OEChem-11301218202D

 37 39  0     0  0  0  0  0  0999 V2000
    6.3301    0.0530    0.0000 N   0  0  0  0  0  0  0  0  0  0  0  0
    9.8744    1.8577    0.0000 N   0  0  0  0  0  0  0  0  0  0  0  0
    5.4641    0.5530    0.0000 C   0  0  0  0  0  0  0  0  0  0  0  0
    4.5981    0.0530    0.0000 C   0  0  0  0  0  0  0  0  0  0  0  0
    7.1962    0.5530    0.0000 C   0  0  0  0  0  0  0  0  0  0  0  0
    8.9282    0.5530    0.0000 C   0  0  0  0  0  0  0  0  0  0  0  0
    8.9282    1.5530    0.0000 C   0  0  0  0  0  0  0  0  0  0  0  0
    8.0622    0.0530    0.0000 C   0  0  0  0  0  0  0  0  0  0  0  0
    3.7320    0.5530    0.0000 C   0  0  0  0  0  0  0  0  0  0  0  0
    4.5981   -0.9470    0.0000 C   0  0  0  0  0  0  0  0  0  0  0  0
    2.8660    0.0530    0.0000 C   0  0  0  0  0  0  0  0  0  0  0  0
    3.7320   -1.4470    0.0000 C   0  0  0  0  0  0  0  0  0  0  0  0
    7.1962    1.5530    0.0000 C   0  0  0  0  0  0  0  0  0  0  0  0
    8.0622    2.0530    0.0000 C   0  0  0  0  0  0  0  0  0  0  0  0
    2.8660   -0.9470    0.0000 C   0  0  0  0  0  0  0  0  0  0  0  0
    9.8744    0.2482    0.0000 C   0  0  0  0  0  0  0  0  0  0  0  0
   10.4580    1.0530    0.0000 C   0  0  0  0  0  0  0  0  0  0  0  0
    2.0000    0.5530    0.0000 C   0  0  0  0  0  0  0  0  0  0  0  0
    3.7320   -2.4470    0.0000 C   0  0  0  0  0  0  0  0  0  0  0  0
    5.8626    1.0279    0.0000 H   0  0  0  0  0  0  0  0  0  0  0  0
    5.0656    1.0279    0.0000 H   0  0  0  0  0  0  0  0  0  0  0  0
    6.3301   -0.5670    0.0000 H   0  0  0  0  0  0  0  0  0  0  0  0
    8.0622   -0.5670    0.0000 H   0  0  0  0  0  0  0  0  0  0  0  0
    3.7320    1.1730    0.0000 H   0  0  0  0  0  0  0  0  0  0  0  0
    5.1350   -1.2570    0.0000 H   0  0  0  0  0  0  0  0  0  0  0  0
    6.6592    1.8630    0.0000 H   0  0  0  0  0  0  0  0  0  0  0  0
    8.0622    2.6730    0.0000 H   0  0  0  0  0  0  0  0  0  0  0  0
    2.3291   -1.2570    0.0000 H   0  0  0  0  0  0  0  0  0  0  0  0
   10.0670   -0.3411    0.0000 H   0  0  0  0  0  0  0  0  0  0  0  0
   10.0670    2.4470    0.0000 H   0  0  0  0  0  0  0  0  0  0  0  0
   11.0780    1.0530    0.0000 H   0  0  0  0  0  0  0  0  0  0  0  0
    2.3100    1.0899    0.0000 H   0  0  0  0  0  0  0  0  0  0  0  0
    1.4631    0.8630    0.0000 H   0  0  0  0  0  0  0  0  0  0  0  0
    1.6900    0.0160    0.0000 H   0  0  0  0  0  0  0  0  0  0  0  0
    3.1120   -2.4470    0.0000 H   0  0  0  0  0  0  0  0  0  0  0  0
    3.7320   -3.0670    0.0000 H   0  0  0  0  0  0  0  0  0  0  0  0
    4.3520   -2.4470    0.0000 H   0  0  0  0  0  0  0  0  0  0  0  0
  1  3  1  0  0  0  0
  1  5  1  0  0  0  0
  1 22  1  0  0  0  0
  2  7  1  0  0  0  0
  2 17  1  0  0  0  0
  2 30  1  0  0  0  0
  3  4  1  0  0  0  0
  3 20  1  0  0  0  0
  3 21  1  0  0  0  0
  4  9  2  0  0  0  0
  4 10  1  0  0  0  0
  5  8  2  0  0  0  0
  5 13  1  0  0  0  0
  6  7  2  0  0  0  0
  6  8  1  0  0  0  0
  6 16  1  0  0  0  0
  7 14  1  0  0  0  0
  8 23  1  0  0  0  0
  9 11  1  0  0  0  0
  9 24  1  0  0  0  0
 10 12  2  0  0  0  0
 10 25  1  0  0  0  0
 11 15  2  0  0  0  0
 11 18  1  0  0  0  0
 12 15  1  0  0  0  0
 12 19  1  0  0  0  0
 13 14  2  0  0  0  0
 13 26  1  0  0  0  0
 14 27  1  0  0  0  0
 15 28  1  0  0  0  0
 16 17  2  0  0  0  0
 16 29  1  0  0  0  0
 17 31  1  0  0  0  0
 18 32  1  0  0  0  0
 18 33  1  0  0  0  0
 18 34  1  0  0  0  0
 19 35  1  0  0  0  0
 19 36  1  0  0  0  0
 19 37  1  0  0  0  0
M  END
> <PUBCHEM_COMPOUND_CID>
61650751

> <PUBCHEM_COMPOUND_CANONICALIZED>
1

> <PUBCHEM_CACTVS_COMPLEXITY>
281

> <PUBCHEM_CACTVS_HBOND_ACCEPTOR>
1

> <PUBCHEM_CACTVS_HBOND_DONOR>
2

> <PUBCHEM_CACTVS_ROTATABLE_BOND>
3

> <PUBCHEM_CACTVS_SUBSKEYS>
AAADceB7AAAAAAAAAAAAAAAAAAAAAWAAAAAwYAAAAAAAAFgB9AAAHAAQAAAADAjBHgQ+wPLJkACgAzRnRACCgCAxAiAI2aA4ZJgIIOLAkZGEIAhgkADIyAcQgMAOAACCQAACAAAAAQSAAAQAAAAAAAAAAA==

> <PUBCHEM_IUPAC_OPENEYE_NAME>
N-[(3,5-dimethylphenyl)methyl]-1H-indol-5-amine

> <PUBCHEM_IUPAC_CAS_NAME>
N-[(3,5-dimethylphenyl)methyl]-1H-indol-5-amine

> <PUBCHEM_IUPAC_NAME>
N-[(3,5-dimethylphenyl)methyl]-1H-indol-5-amine

> <PUBCHEM_IUPAC_SYSTEMATIC_NAME>
N-[(3,5-dimethylphenyl)methyl]-1H-indol-5-amine

> <PUBCHEM_IUPAC_TRADITIONAL_NAME>
(3,5-dimethylbenzyl)-(1H-indol-5-yl)amine

> <PUBCHEM_IUPAC_INCHI>
InChI=1S/C17H18N2/c1-12-7-13(2)9-14(8-12)11-19-16-3-4-17-15(10-16)5-6-18-17/h3-10,18-19H,11H2,1-2H3

> <PUBCHEM_IUPAC_INCHIKEY>
QQKBJLWOQUQEBC-UHFFFAOYSA-N

> <PUBCHEM_XLOGP3>
4.5

> <PUBCHEM_EXACT_MASS>
250.146999

> <PUBCHEM_MOLECULAR_FORMULA>
C17H18N2

> <PUBCHEM_MOLECULAR_WEIGHT>
250.33822

> <PUBCHEM_OPENEYE_CAN_SMILES>
CC1=CC(=CC(=C1)CNC2=CC3=C(C=C2)NC=C3)C

> <PUBCHEM_OPENEYE_ISO_SMILES>
CC1=CC(=CC(=C1)CNC2=CC3=C(C=C2)NC=C3)C

> <PUBCHEM_CACTVS_TPSA>
27.8

> <PUBCHEM_MONOISOTOPIC_WEIGHT>
250.146999

> <PUBCHEM_TOTAL_CHARGE>
0

> <PUBCHEM_HEAVY_ATOM_COUNT>
19

> <PUBCHEM_ATOM_DEF_STEREO_COUNT>
0

> <PUBCHEM_ATOM_UDEF_STEREO_COUNT>
0

> <PUBCHEM_BOND_DEF_STEREO_COUNT>
0

> <PUBCHEM_BOND_UDEF_STEREO_COUNT>
0

> <PUBCHEM_ISOTOPIC_ATOM_COUNT>
0

> <PUBCHEM_COMPONENT_COUNT>
1

> <PUBCHEM_CACTVS_TAUTO_COUNT>
1

> <PUBCHEM_COORDINATE_TYPE>
1
5
255

> <PUBCHEM_BONDANNOTATIONS>
10  12  8
11  15  8
12  15  8
13  14  8
16  17  8
2  17  8
2  7  8
4  10  8
4  9  8
5  13  8
5  8  8
6  16  8
6  7  8
6  8  8
7  14  8
9  11  8

$$$$
