43904933
  -OEChem-11301217522D

 38 39  0     1  0  0  0  0  0999 V2000
    2.8660    0.2500    0.0000 O   0  0  0  0  0  0  0  0  0  0  0  0
    4.5981    0.2500    0.0000 N   0  0  0  0  0  0  0  0  0  0  0  0
    4.5981    1.2500    0.0000 C   0  0  3  0  0  0  0  0  0  0  0  0
    5.4641    1.7500    0.0000 C   0  0  0  0  0  0  0  0  0  0  0  0
    3.7320    1.7500    0.0000 C   0  0  0  0  0  0  0  0  0  0  0  0
    6.3301    1.2500    0.0000 C   0  0  0  0  0  0  0  0  0  0  0  0
    5.4641    2.7500    0.0000 C   0  0  0  0  0  0  0  0  0  0  0  0
    3.7320   -0.2500    0.0000 C   0  0  0  0  0  0  0  0  0  0  0  0
    3.7320   -1.2500    0.0000 C   0  0  0  0  0  0  0  0  0  0  0  0
    7.1962    2.7500    0.0000 C   0  0  0  0  0  0  0  0  0  0  0  0
    7.1962    1.7500    0.0000 C   0  0  0  0  0  0  0  0  0  0  0  0
    6.3301    3.2500    0.0000 C   0  0  0  0  0  0  0  0  0  0  0  0
    2.8660   -1.7500    0.0000 C   0  0  0  0  0  0  0  0  0  0  0  0
    4.5981   -1.7500    0.0000 C   0  0  0  0  0  0  0  0  0  0  0  0
    2.8660   -2.7500    0.0000 C   0  0  0  0  0  0  0  0  0  0  0  0
    8.0622    3.2500    0.0000 C   0  0  0  0  0  0  0  0  0  0  0  0
    2.0000   -1.2500    0.0000 C   0  0  0  0  0  0  0  0  0  0  0  0
    4.5981   -2.7500    0.0000 C   0  0  0  0  0  0  0  0  0  0  0  0
    3.7320   -3.2500    0.0000 C   0  0  0  0  0  0  0  0  0  0  0  0
    5.1350    0.9400    0.0000 H   0  0  0  0  0  0  0  0  0  0  0  0
    5.1350   -0.0600    0.0000 H   0  0  0  0  0  0  0  0  0  0  0  0
    4.0420    2.2869    0.0000 H   0  0  0  0  0  0  0  0  0  0  0  0
    3.1951    2.0600    0.0000 H   0  0  0  0  0  0  0  0  0  0  0  0
    3.4220    1.2131    0.0000 H   0  0  0  0  0  0  0  0  0  0  0  0
    6.3301    0.6300    0.0000 H   0  0  0  0  0  0  0  0  0  0  0  0
    4.9272    3.0600    0.0000 H   0  0  0  0  0  0  0  0  0  0  0  0
    7.7331    1.4400    0.0000 H   0  0  0  0  0  0  0  0  0  0  0  0
    6.3301    3.8700    0.0000 H   0  0  0  0  0  0  0  0  0  0  0  0
    5.1350   -1.4400    0.0000 H   0  0  0  0  0  0  0  0  0  0  0  0
    2.3291   -3.0600    0.0000 H   0  0  0  0  0  0  0  0  0  0  0  0
    8.3722    2.7131    0.0000 H   0  0  0  0  0  0  0  0  0  0  0  0
    8.5991    3.5600    0.0000 H   0  0  0  0  0  0  0  0  0  0  0  0
    7.7522    3.7869    0.0000 H   0  0  0  0  0  0  0  0  0  0  0  0
    2.3100   -0.7131    0.0000 H   0  0  0  0  0  0  0  0  0  0  0  0
    1.4631   -0.9400    0.0000 H   0  0  0  0  0  0  0  0  0  0  0  0
    1.6900   -1.7869    0.0000 H   0  0  0  0  0  0  0  0  0  0  0  0
    5.1350   -3.0600    0.0000 H   0  0  0  0  0  0  0  0  0  0  0  0
    3.7320   -3.8700    0.0000 H   0  0  0  0  0  0  0  0  0  0  0  0
  1  8  2  0  0  0  0
  2  3  1  0  0  0  0
  2  8  1  0  0  0  0
  2 21  1  0  0  0  0
  3  4  1  0  0  0  0
  3  5  1  0  0  0  0
  3 20  1  0  0  0  0
  4  6  2  0  0  0  0
  4  7  1  0  0  0  0
  5 22  1  0  0  0  0
  5 23  1  0  0  0  0
  5 24  1  0  0  0  0
  6 11  1  0  0  0  0
  6 25  1  0  0  0  0
  7 12  2  0  0  0  0
  7 26  1  0  0  0  0
  8  9  1  0  0  0  0
  9 13  1  0  0  0  0
  9 14  2  0  0  0  0
 10 11  2  0  0  0  0
 10 12  1  0  0  0  0
 10 16  1  0  0  0  0
 11 27  1  0  0  0  0
 12 28  1  0  0  0  0
 13 15  2  0  0  0  0
 13 17  1  0  0  0  0
 14 18  1  0  0  0  0
 14 29  1  0  0  0  0
 15 19  1  0  0  0  0
 15 30  1  0  0  0  0
 16 31  1  0  0  0  0
 16 32  1  0  0  0  0
 16 33  1  0  0  0  0
 17 34  1  0  0  0  0
 17 35  1  0  0  0  0
 17 36  1  0  0  0  0
 18 19  2  0  0  0  0
 18 37  1  0  0  0  0
 19 38  1  0  0  0  0
M  END
> <PUBCHEM_COMPOUND_CID>
43904933

> <PUBCHEM_COMPOUND_CANONICALIZED>
1

> <PUBCHEM_CACTVS_COMPLEXITY>
294

> <PUBCHEM_CACTVS_HBOND_ACCEPTOR>
1

> <PUBCHEM_CACTVS_HBOND_DONOR>
1

> <PUBCHEM_CACTVS_ROTATABLE_BOND>
3

> <PUBCHEM_CACTVS_SUBSKEYS>
AAADceB6IAAAAAAAAAAAAAAAAAAAAAAAAAAwYAAAAAAAAAABQAAAHgAQAAAADCjBmAQyAILAAACIAiFSEACCAAAkAAAIiIEIBMgIIDKAlRGEIQhglgCIiYcYiMCOwAAAAAAQAACAAAAAACAAAAAAAAAAAA==

> <PUBCHEM_IUPAC_OPENEYE_NAME>
2-methyl-N-[1-(p-tolyl)ethyl]benzamide

> <PUBCHEM_IUPAC_CAS_NAME>
2-methyl-N-[1-(4-methylphenyl)ethyl]benzamide

> <PUBCHEM_IUPAC_NAME>
2-methyl-N-[1-(4-methylphenyl)ethyl]benzamide

> <PUBCHEM_IUPAC_SYSTEMATIC_NAME>
2-methyl-N-[1-(4-methylphenyl)ethyl]benzamide

> <PUBCHEM_IUPAC_TRADITIONAL_NAME>
2-methyl-N-[1-(p-tolyl)ethyl]benzamide

> <PUBCHEM_IUPAC_INCHI>
InChI=1S/C17H19NO/c1-12-8-10-15(11-9-12)14(3)18-17(19)16-7-5-4-6-13(16)2/h4-11,14H,1-3H3,(H,18,19)

> <PUBCHEM_IUPAC_INCHIKEY>
CSYAIZVCUFXNPX-UHFFFAOYSA-N

> <PUBCHEM_XLOGP3>
3.2

> <PUBCHEM_EXACT_MASS>
253.146664

> <PUBCHEM_MOLECULAR_FORMULA>
C17H19NO

> <PUBCHEM_MOLECULAR_WEIGHT>
253.33886

> <PUBCHEM_OPENEYE_CAN_SMILES>
CC1=CC=C(C=C1)C(C)NC(=O)C2=CC=CC=C2C

> <PUBCHEM_OPENEYE_ISO_SMILES>
CC1=CC=C(C=C1)C(C)NC(=O)C2=CC=CC=C2C

> <PUBCHEM_CACTVS_TPSA>
29.1

> <PUBCHEM_MONOISOTOPIC_WEIGHT>
253.146664

> <PUBCHEM_TOTAL_CHARGE>
0

> <PUBCHEM_HEAVY_ATOM_COUNT>
19

> <PUBCHEM_ATOM_DEF_STEREO_COUNT>
0

> <PUBCHEM_ATOM_UDEF_STEREO_COUNT>
1

> <PUBCHEM_BOND_DEF_STEREO_COUNT>
0

> <PUBCHEM_BOND_UDEF_STEREO_COUNT>
0

> <PUBCHEM_ISOTOPIC_ATOM_COUNT>
0

> <PUBCHEM_COMPONENT_COUNT>
1

> <PUBCHEM_CACTVS_TAUTO_COUNT>
2

> <PUBCHEM_COORDINATE_TYPE>
1
5
255

> <PUBCHEM_BONDANNOTATIONS>
10  11  8
10  12  8
13  15  8
14  18  8
15  19  8
18  19  8
3  5  3
4  6  8
4  7  8
6  11  8
7  12  8
9  13  8
9  14  8

$$$$
43911319
  -OEChem-11301217532D

 46 48  0     0  0  0  0  0  0999 V2000
    8.7788   -1.4980    0.0000 S   0  0  0  0  0  0  0  0  0  0  0  0
    8.2788   -2.3640    0.0000 O   0  0  0  0  0  0  0  0  0  0  0  0
    9.2788   -0.6320    0.0000 O   0  0  0  0  0  0  0  0  0  0  0  0
    2.6691    0.0953    0.0000 O   0  0  0  0  0  0  0  0  0  0  0  0
   11.3769    1.0020    0.0000 O   0  0  0  0  0  0  0  0  0  0  0  0
    4.4487   -0.9980    0.0000 O   0  0  0  0  0  0  0  0  0  0  0  0
   13.1090   -1.9980    0.0000 O   0  0  0  0  0  0  0  0  0  0  0  0
    9.6448   -1.9980    0.0000 N   0  0  0  0  0  0  0  0  0  0  0  0
    5.3147    0.5020    0.0000 N   0  0  0  0  0  0  0  0  0  0  0  0
   11.3769   -1.9980    0.0000 N   0  0  0  0  0  0  0  0  0  0  0  0
   12.2429   -0.4980    0.0000 N   0  0  0  0  0  0  0  0  0  0  0  0
    2.0000    0.8384    0.0000 N   0  0  0  0  0  0  0  0  0  0  0  0
    7.9128   -0.9980    0.0000 C   0  0  0  0  0  0  0  0  0  0  0  0
    6.1808    0.0020    0.0000 C   0  0  0  0  0  0  0  0  0  0  0  0
    7.9128    0.0020    0.0000 C   0  0  0  0  0  0  0  0  0  0  0  0
    7.0468   -1.4980    0.0000 C   0  0  0  0  0  0  0  0  0  0  0  0
    7.0468    0.5020    0.0000 C   0  0  0  0  0  0  0  0  0  0  0  0
    6.1808   -0.9980    0.0000 C   0  0  0  0  0  0  0  0  0  0  0  0
   10.5109   -1.4980    0.0000 C   0  0  0  0  0  0  0  0  0  0  0  0
    4.4487    0.0020    0.0000 C   0  0  0  0  0  0  0  0  0  0  0  0
   10.5109   -0.4980    0.0000 C   0  0  0  0  0  0  0  0  0  0  0  0
    3.5827    0.5020    0.0000 C   0  0  0  0  0  0  0  0  0  0  0  0
   11.3769    0.0020    0.0000 C   0  0  0  0  0  0  0  0  0  0  0  0
    3.4782    1.4965    0.0000 C   0  0  0  0  0  0  0  0  0  0  0  0
    2.5000    1.7044    0.0000 C   0  0  0  0  0  0  0  0  0  0  0  0
   12.2429   -1.4980    0.0000 C   0  0  0  0  0  0  0  0  0  0  0  0
    2.0933    2.6180    0.0000 C   0  0  0  0  0  0  0  0  0  0  0  0
   12.2429    1.5020    0.0000 C   0  0  0  0  0  0  0  0  0  0  0  0
   13.9750   -1.4980    0.0000 C   0  0  0  0  0  0  0  0  0  0  0  0
    8.4497    0.3120    0.0000 H   0  0  0  0  0  0  0  0  0  0  0  0
    7.0468   -2.1180    0.0000 H   0  0  0  0  0  0  0  0  0  0  0  0
    9.6448   -2.6180    0.0000 H   0  0  0  0  0  0  0  0  0  0  0  0
    7.0468    1.1220    0.0000 H   0  0  0  0  0  0  0  0  0  0  0  0
    5.6438   -1.3080    0.0000 H   0  0  0  0  0  0  0  0  0  0  0  0
    5.3147    1.1220    0.0000 H   0  0  0  0  0  0  0  0  0  0  0  0
    9.9739   -0.1880    0.0000 H   0  0  0  0  0  0  0  0  0  0  0  0
    3.9389    1.9114    0.0000 H   0  0  0  0  0  0  0  0  0  0  0  0
    2.6597    2.8702    0.0000 H   0  0  0  0  0  0  0  0  0  0  0  0
    1.8411    3.1844    0.0000 H   0  0  0  0  0  0  0  0  0  0  0  0
    1.5269    2.3658    0.0000 H   0  0  0  0  0  0  0  0  0  0  0  0
   12.5529    0.9651    0.0000 H   0  0  0  0  0  0  0  0  0  0  0  0
   12.7799    1.8120    0.0000 H   0  0  0  0  0  0  0  0  0  0  0  0
   11.9329    2.0390    0.0000 H   0  0  0  0  0  0  0  0  0  0  0  0
   14.2850   -2.0349    0.0000 H   0  0  0  0  0  0  0  0  0  0  0  0
   14.5119   -1.1880    0.0000 H   0  0  0  0  0  0  0  0  0  0  0  0
   13.6650   -0.9611    0.0000 H   0  0  0  0  0  0  0  0  0  0  0  0
  1  2  2  0  0  0  0
  1  3  2  0  0  0  0
  1  8  1  0  0  0  0
  1 13  1  0  0  0  0
  4 12  1  0  0  0  0
  4 22  1  0  0  0  0
  5 23  1  0  0  0  0
  5 28  1  0  0  0  0
  6 20  2  0  0  0  0
  7 26  1  0  0  0  0
  7 29  1  0  0  0  0
  8 19  1  0  0  0  0
  8 32  1  0  0  0  0
  9 14  1  0  0  0  0
  9 20  1  0  0  0  0
  9 35  1  0  0  0  0
 10 19  1  0  0  0  0
 10 26  2  0  0  0  0
 11 23  2  0  0  0  0
 11 26  1  0  0  0  0
 12 25  2  0  0  0  0
 13 15  2  0  0  0  0
 13 16  1  0  0  0  0
 14 17  2  0  0  0  0
 14 18  1  0  0  0  0
 15 17  1  0  0  0  0
 15 30  1  0  0  0  0
 16 18  2  0  0  0  0
 16 31  1  0  0  0  0
 17 33  1  0  0  0  0
 18 34  1  0  0  0  0
 19 21  2  0  0  0  0
 20 22  1  0  0  0  0
 21 23  1  0  0  0  0
 21 36  1  0  0  0  0
 22 24  2  0  0  0  0
 24 25  1  0  0  0  0
 24 37  1  0  0  0  0
 25 27  1  0  0  0  0
 27 38  1  0  0  0  0
 27 39  1  0  0  0  0
 27 40  1  0  0  0  0
 28 41  1  0  0  0  0
 28 42  1  0  0  0  0
 28 43  1  0  0  0  0
 29 44  1  0  0  0  0
 29 45  1  0  0  0  0
 29 46  1  0  0  0  0
M  END
> <PUBCHEM_COMPOUND_CID>
43911319

> <PUBCHEM_COMPOUND_CANONICALIZED>
1

> <PUBCHEM_CACTVS_COMPLEXITY>
651

> <PUBCHEM_CACTVS_HBOND_ACCEPTOR>
10

> <PUBCHEM_CACTVS_HBOND_DONOR>
2

> <PUBCHEM_CACTVS_ROTATABLE_BOND>
7

> <PUBCHEM_CACTVS_SUBSKEYS>
AAADceB7uABAAAAAAAAAAAAAAAAAAWAAAAA8QAAAAAAAAAAB8AAAHgQUQAAACAyB1gIz9ZbYFAKpAadydnLCiDklIqApmDn2bNqOLjrE/fuENahulBrY6eccAAAAAAQAAAAAAAAACAAAAAAAAAAAAAAAAA==

> <PUBCHEM_IUPAC_OPENEYE_NAME>
N-[4-[(2,6-dimethoxypyrimidin-4-yl)sulfamoyl]phenyl]-3-methyl-isoxazole-5-carboxamide

> <PUBCHEM_IUPAC_CAS_NAME>
N-[4-[(2,6-dimethoxy-4-pyrimidinyl)sulfamoyl]phenyl]-3-methyl-5-isoxazolecarboxamide

> <PUBCHEM_IUPAC_NAME>
N-[4-[(2,6-dimethoxypyrimidin-4-yl)sulfamoyl]phenyl]-3-methyl-1,2-oxazole-5-carboxamide

> <PUBCHEM_IUPAC_SYSTEMATIC_NAME>
N-[4-[(2,6-dimethoxypyrimidin-4-yl)sulfamoyl]phenyl]-3-methyl-1,2-oxazole-5-carboxamide

> <PUBCHEM_IUPAC_TRADITIONAL_NAME>
N-[4-[(2,6-dimethoxypyrimidin-4-yl)sulfamoyl]phenyl]-3-methyl-isoxazole-5-carboxamide

> <PUBCHEM_IUPAC_INCHI>
InChI=1S/C17H17N5O6S/c1-10-8-13(28-21-10)16(23)18-11-4-6-12(7-5-11)29(24,25)22-14-9-15(26-2)20-17(19-14)27-3/h4-9H,1-3H3,(H,18,23)(H,19,20,22)

> <PUBCHEM_IUPAC_INCHIKEY>
IXDZUCPMTPGBJF-UHFFFAOYSA-N

> <PUBCHEM_XLOGP3>
2.3

> <PUBCHEM_EXACT_MASS>
419.089954

> <PUBCHEM_MOLECULAR_FORMULA>
C17H17N5O6S

> <PUBCHEM_MOLECULAR_WEIGHT>
419.41178

> <PUBCHEM_OPENEYE_CAN_SMILES>
CC1=NOC(=C1)C(=O)NC2=CC=C(C=C2)S(=O)(=O)NC3=CC(=NC(=N3)OC)OC

> <PUBCHEM_OPENEYE_ISO_SMILES>
CC1=NOC(=C1)C(=O)NC2=CC=C(C=C2)S(=O)(=O)NC3=CC(=NC(=N3)OC)OC

> <PUBCHEM_CACTVS_TPSA>
154

> <PUBCHEM_MONOISOTOPIC_WEIGHT>
419.089954

> <PUBCHEM_TOTAL_CHARGE>
0

> <PUBCHEM_HEAVY_ATOM_COUNT>
29

> <PUBCHEM_ATOM_DEF_STEREO_COUNT>
0

> <PUBCHEM_ATOM_UDEF_STEREO_COUNT>
0

> <PUBCHEM_BOND_DEF_STEREO_COUNT>
0

> <PUBCHEM_BOND_UDEF_STEREO_COUNT>
0

> <PUBCHEM_ISOTOPIC_ATOM_COUNT>
0

> <PUBCHEM_COMPONENT_COUNT>
1

> <PUBCHEM_CACTVS_TAUTO_COUNT>
6

> <PUBCHEM_COORDINATE_TYPE>
1
5
255

> <PUBCHEM_BONDANNOTATIONS>
10  19  8
10  26  8
11  23  8
11  26  8
12  25  8
13  15  8
13  16  8
14  17  8
14  18  8
15  17  8
16  18  8
19  21  8
21  23  8
22  24  8
24  25  8
4  12  8
4  22  8

$$$$
43917237
  -OEChem-11301217532D

 32 34  0     0  0  0  0  0  0999 V2000
    8.6907   -0.2918    0.0000 O   0  0  0  0  0  0  0  0  0  0  0  0
    4.5274    1.4148    0.0000 N   0  0  0  0  0  0  0  0  0  0  0  0
    7.3991   -1.4458    0.0000 N   0  0  0  0  0  0  0  0  0  0  0  0
    5.0274   -0.1241    0.0000 C   0  0  0  0  0  0  0  0  0  0  0  0
    4.0274   -0.1241    0.0000 C   0  0  0  0  0  0  0  0  0  0  0  0
    5.3364    0.8270    0.0000 C   0  0  0  0  0  0  0  0  0  0  0  0
    3.7183    0.8270    0.0000 C   0  0  0  0  0  0  0  0  0  0  0  0
    5.7123   -0.9088    0.0000 C   0  0  0  0  0  0  0  0  0  0  0  0
    6.7328   -0.7001    0.0000 C   0  0  0  0  0  0  0  0  0  0  0  0
    6.3518    1.0592    0.0000 C   0  0  0  0  0  0  0  0  0  0  0  0
    3.3424   -0.9088    0.0000 C   0  0  0  0  0  0  0  0  0  0  0  0
    7.0547    0.2905    0.0000 C   0  0  0  0  0  0  0  0  0  0  0  0
    2.7029    1.0592    0.0000 C   0  0  0  0  0  0  0  0  0  0  0  0
    2.3219   -0.7001    0.0000 C   0  0  0  0  0  0  0  0  0  0  0  0
    2.0000    0.2905    0.0000 C   0  0  0  0  0  0  0  0  0  0  0  0
    8.3780   -1.2417    0.0000 C   0  0  0  0  0  0  0  0  0  0  0  0
    9.0443   -1.9874    0.0000 C   0  0  0  0  0  0  0  0  0  0  0  0
   10.0232   -1.7833    0.0000 C   0  0  0  0  0  0  0  0  0  0  0  0
    4.5274    2.0348    0.0000 H   0  0  0  0  0  0  0  0  0  0  0  0
    5.5139   -1.4962    0.0000 H   0  0  0  0  0  0  0  0  0  0  0  0
    6.5365    1.6510    0.0000 H   0  0  0  0  0  0  0  0  0  0  0  0
    3.5408   -1.4962    0.0000 H   0  0  0  0  0  0  0  0  0  0  0  0
    7.6607    0.4218    0.0000 H   0  0  0  0  0  0  0  0  0  0  0  0
    2.5182    1.6510    0.0000 H   0  0  0  0  0  0  0  0  0  0  0  0
    1.9088   -1.1625    0.0000 H   0  0  0  0  0  0  0  0  0  0  0  0
    7.2052   -2.0348    0.0000 H   0  0  0  0  0  0  0  0  0  0  0  0
    1.3940    0.4218    0.0000 H   0  0  0  0  0  0  0  0  0  0  0  0
    8.5172   -2.3139    0.0000 H   0  0  0  0  0  0  0  0  0  0  0  0
    9.2743   -2.5632    0.0000 H   0  0  0  0  0  0  0  0  0  0  0  0
   10.1498   -2.3902    0.0000 H   0  0  0  0  0  0  0  0  0  0  0  0
   10.6302   -1.6567    0.0000 H   0  0  0  0  0  0  0  0  0  0  0  0
    9.8967   -1.1763    0.0000 H   0  0  0  0  0  0  0  0  0  0  0  0
  1 16  2  0  0  0  0
  2  6  1  0  0  0  0
  2  7  1  0  0  0  0
  2 19  1  0  0  0  0
  3  9  1  0  0  0  0
  3 16  1  0  0  0  0
  3 26  1  0  0  0  0
  4  5  1  0  0  0  0
  4  6  2  0  0  0  0
  4  8  1  0  0  0  0
  5  7  1  0  0  0  0
  5 11  2  0  0  0  0
  6 10  1  0  0  0  0
  7 13  2  0  0  0  0
  8  9  2  0  0  0  0
  8 20  1  0  0  0  0
  9 12  1  0  0  0  0
 10 12  2  0  0  0  0
 10 21  1  0  0  0  0
 11 14  1  0  0  0  0
 11 22  1  0  0  0  0
 12 23  1  0  0  0  0
 13 15  1  0  0  0  0
 13 24  1  0  0  0  0
 14 15  2  0  0  0  0
 14 25  1  0  0  0  0
 15 27  1  0  0  0  0
 16 17  1  0  0  0  0
 17 18  1  0  0  0  0
 17 28  1  0  0  0  0
 17 29  1  0  0  0  0
 18 30  1  0  0  0  0
 18 31  1  0  0  0  0
 18 32  1  0  0  0  0
M  END
> <PUBCHEM_COMPOUND_CID>
43917237

> <PUBCHEM_COMPOUND_CANONICALIZED>
1

> <PUBCHEM_CACTVS_COMPLEXITY>
318

> <PUBCHEM_CACTVS_HBOND_ACCEPTOR>
1

> <PUBCHEM_CACTVS_HBOND_DONOR>
2

> <PUBCHEM_CACTVS_ROTATABLE_BOND>
2

> <PUBCHEM_CACTVS_SUBSKEYS>
AAADccBzIAAAAAAAAAAAAAAAAAAAAWAAAAAwYAAAAAAAAFgB/AAAHgAQAAAADAiBngAywPLJkACoAyVyVACCgCAhAiAImSEwZJgIIOLAkZGEIAhglADIyAcQgMAOgACAQAACAAAAAQCAAAQAAAAAAAAAAA==

> <PUBCHEM_IUPAC_OPENEYE_NAME>
N-(9H-carbazol-3-yl)propanamide

> <PUBCHEM_IUPAC_CAS_NAME>
N-(9H-carbazol-3-yl)propanamide

> <PUBCHEM_IUPAC_NAME>
N-(9H-carbazol-3-yl)propanamide

> <PUBCHEM_IUPAC_SYSTEMATIC_NAME>
N-(9H-carbazol-3-yl)propanamide

> <PUBCHEM_IUPAC_TRADITIONAL_NAME>
N-(9H-carbazol-3-yl)propionamide

> <PUBCHEM_IUPAC_INCHI>
InChI=1S/C15H14N2O/c1-2-15(18)16-10-7-8-14-12(9-10)11-5-3-4-6-13(11)17-14/h3-9,17H,2H2,1H3,(H,16,18)

> <PUBCHEM_IUPAC_INCHIKEY>
DRZAFNTTYHUWSK-UHFFFAOYSA-N

> <PUBCHEM_XLOGP3>
3.5

> <PUBCHEM_EXACT_MASS>
238.110613

> <PUBCHEM_MOLECULAR_FORMULA>
C15H14N2O

> <PUBCHEM_MOLECULAR_WEIGHT>
238.28446

> <PUBCHEM_OPENEYE_CAN_SMILES>
CCC(=O)NC1=CC2=C(C=C1)NC3=CC=CC=C32

> <PUBCHEM_OPENEYE_ISO_SMILES>
CCC(=O)NC1=CC2=C(C=C1)NC3=CC=CC=C32

> <PUBCHEM_CACTVS_TPSA>
44.9

> <PUBCHEM_MONOISOTOPIC_WEIGHT>
238.110613

> <PUBCHEM_TOTAL_CHARGE>
0

> <PUBCHEM_HEAVY_ATOM_COUNT>
18

> <PUBCHEM_ATOM_DEF_STEREO_COUNT>
0

> <PUBCHEM_ATOM_UDEF_STEREO_COUNT>
0

> <PUBCHEM_BOND_DEF_STEREO_COUNT>
0

> <PUBCHEM_BOND_UDEF_STEREO_COUNT>
0

> <PUBCHEM_ISOTOPIC_ATOM_COUNT>
0

> <PUBCHEM_COMPONENT_COUNT>
1

> <PUBCHEM_CACTVS_TAUTO_COUNT>
3

> <PUBCHEM_COORDINATE_TYPE>
1
5
255

> <PUBCHEM_BONDANNOTATIONS>
10  12  8
11  14  8
13  15  8
14  15  8
2  6  8
2  7  8
4  5  8
4  6  8
4  8  8
5  11  8
5  7  8
6  10  8
7  13  8
8  9  8
9  12  8

$$$$
43917271
  -OEChem-11301217532D

 41 43  0     0  0  0  0  0  0999 V2000
    8.6907    0.0719    0.0000 O   0  0  0  0  0  0  0  0  0  0  0  0
    7.3991   -1.0821    0.0000 N   0  0  0  0  0  0  0  0  0  0  0  0
    4.5274    1.7785    0.0000 N   0  0  0  0  0  0  0  0  0  0  0  0
   10.0232   -1.4195    0.0000 C   0  0  0  0  0  0  0  0  0  0  0  0
    9.0443   -1.6237    0.0000 C   0  0  0  0  0  0  0  0  0  0  0  0
   11.0022   -1.2154    0.0000 C   0  0  0  0  0  0  0  0  0  0  0  0
   10.2274   -2.3985    0.0000 C   0  0  0  0  0  0  0  0  0  0  0  0
    9.8191   -0.4406    0.0000 C   0  0  0  0  0  0  0  0  0  0  0  0
    8.3780   -0.8780    0.0000 C   0  0  0  0  0  0  0  0  0  0  0  0
    5.0274    0.2396    0.0000 C   0  0  0  0  0  0  0  0  0  0  0  0
    5.3364    1.1907    0.0000 C   0  0  0  0  0  0  0  0  0  0  0  0
    4.0274    0.2396    0.0000 C   0  0  0  0  0  0  0  0  0  0  0  0
    6.7328   -0.3364    0.0000 C   0  0  0  0  0  0  0  0  0  0  0  0
    3.7183    1.1907    0.0000 C   0  0  0  0  0  0  0  0  0  0  0  0
    5.7123   -0.5451    0.0000 C   0  0  0  0  0  0  0  0  0  0  0  0
    6.3518    1.4230    0.0000 C   0  0  0  0  0  0  0  0  0  0  0  0
    7.0547    0.6543    0.0000 C   0  0  0  0  0  0  0  0  0  0  0  0
    3.3424   -0.5451    0.0000 C   0  0  0  0  0  0  0  0  0  0  0  0
    2.7029    1.4230    0.0000 C   0  0  0  0  0  0  0  0  0  0  0  0
    2.3219   -0.3364    0.0000 C   0  0  0  0  0  0  0  0  0  0  0  0
    2.0000    0.6543    0.0000 C   0  0  0  0  0  0  0  0  0  0  0  0
    8.5172   -1.9502    0.0000 H   0  0  0  0  0  0  0  0  0  0  0  0
    9.2743   -2.1994    0.0000 H   0  0  0  0  0  0  0  0  0  0  0  0
   11.1288   -1.8224    0.0000 H   0  0  0  0  0  0  0  0  0  0  0  0
   10.4260   -0.3140    0.0000 H   0  0  0  0  0  0  0  0  0  0  0  0
    9.6925    0.1663    0.0000 H   0  0  0  0  0  0  0  0  0  0  0  0
    9.2122   -0.5672    0.0000 H   0  0  0  0  0  0  0  0  0  0  0  0
    9.6204   -2.5250    0.0000 H   0  0  0  0  0  0  0  0  0  0  0  0
   10.3539   -3.0054    0.0000 H   0  0  0  0  0  0  0  0  0  0  0  0
   10.8343   -2.2719    0.0000 H   0  0  0  0  0  0  0  0  0  0  0  0
   11.6091   -1.0888    0.0000 H   0  0  0  0  0  0  0  0  0  0  0  0
   10.8756   -0.6085    0.0000 H   0  0  0  0  0  0  0  0  0  0  0  0
    5.5139   -1.1325    0.0000 H   0  0  0  0  0  0  0  0  0  0  0  0
    7.2052   -1.6710    0.0000 H   0  0  0  0  0  0  0  0  0  0  0  0
    4.5274    2.3985    0.0000 H   0  0  0  0  0  0  0  0  0  0  0  0
    6.5365    2.0148    0.0000 H   0  0  0  0  0  0  0  0  0  0  0  0
    7.6607    0.7855    0.0000 H   0  0  0  0  0  0  0  0  0  0  0  0
    3.5408   -1.1325    0.0000 H   0  0  0  0  0  0  0  0  0  0  0  0
    2.5182    2.0148    0.0000 H   0  0  0  0  0  0  0  0  0  0  0  0
    1.9088   -0.7987    0.0000 H   0  0  0  0  0  0  0  0  0  0  0  0
    1.3940    0.7855    0.0000 H   0  0  0  0  0  0  0  0  0  0  0  0
  1  9  2  0  0  0  0
  2  9  1  0  0  0  0
  2 13  1  0  0  0  0
  2 34  1  0  0  0  0
  3 11  1  0  0  0  0
  3 14  1  0  0  0  0
  3 35  1  0  0  0  0
  4  5  1  0  0  0  0
  4  6  1  0  0  0  0
  4  7  1  0  0  0  0
  4  8  1  0  0  0  0
  5  9  1  0  0  0  0
  5 22  1  0  0  0  0
  5 23  1  0  0  0  0
  6 24  1  0  0  0  0
  6 31  1  0  0  0  0
  6 32  1  0  0  0  0
  7 28  1  0  0  0  0
  7 29  1  0  0  0  0
  7 30  1  0  0  0  0
  8 25  1  0  0  0  0
  8 26  1  0  0  0  0
  8 27  1  0  0  0  0
 10 11  2  0  0  0  0
 10 12  1  0  0  0  0
 10 15  1  0  0  0  0
 11 16  1  0  0  0  0
 12 14  1  0  0  0  0
 12 18  2  0  0  0  0
 13 15  2  0  0  0  0
 13 17  1  0  0  0  0
 14 19  2  0  0  0  0
 15 33  1  0  0  0  0
 16 17  2  0  0  0  0
 16 36  1  0  0  0  0
 17 37  1  0  0  0  0
 18 20  1  0  0  0  0
 18 38  1  0  0  0  0
 19 21  1  0  0  0  0
 19 39  1  0  0  0  0
 20 21  2  0  0  0  0
 20 40  1  0  0  0  0
 21 41  1  0  0  0  0
M  END
> <PUBCHEM_COMPOUND_CID>
43917271

> <PUBCHEM_COMPOUND_CANONICALIZED>
1

> <PUBCHEM_CACTVS_COMPLEXITY>
387

> <PUBCHEM_CACTVS_HBOND_ACCEPTOR>
1

> <PUBCHEM_CACTVS_HBOND_DONOR>
2

> <PUBCHEM_CACTVS_ROTATABLE_BOND>
3

> <PUBCHEM_CACTVS_SUBSKEYS>
AAADceB7IAAAAAAAAAAAAAAAAAAAAWAAAAAwYAAAAAAAAFgB/AAAHgAQAAAADgiBngAywPLJkACoAyVyVACCgCAhAiAImSEwZJgIIPLAkZGEIAhglADIyAcQgMAPgACAQAACAAAAAQCAAAQAAAAAAAAAAA==

> <PUBCHEM_IUPAC_OPENEYE_NAME>
N-(9H-carbazol-3-yl)-3,3-dimethyl-butanamide

> <PUBCHEM_IUPAC_CAS_NAME>
N-(9H-carbazol-3-yl)-3,3-dimethylbutanamide

> <PUBCHEM_IUPAC_NAME>
N-(9H-carbazol-3-yl)-3,3-dimethylbutanamide

> <PUBCHEM_IUPAC_SYSTEMATIC_NAME>
N-(9H-carbazol-3-yl)-3,3-dimethyl-butanamide

> <PUBCHEM_IUPAC_TRADITIONAL_NAME>
N-(9H-carbazol-3-yl)-3,3-dimethyl-butyramide

> <PUBCHEM_IUPAC_INCHI>
InChI=1S/C18H20N2O/c1-18(2,3)11-17(21)19-12-8-9-16-14(10-12)13-6-4-5-7-15(13)20-16/h4-10,20H,11H2,1-3H3,(H,19,21)

> <PUBCHEM_IUPAC_INCHIKEY>
OQYWEESIQKLUNJ-UHFFFAOYSA-N

> <PUBCHEM_XLOGP3>
4.7

> <PUBCHEM_EXACT_MASS>
280.157563

> <PUBCHEM_MOLECULAR_FORMULA>
C18H20N2O

> <PUBCHEM_MOLECULAR_WEIGHT>
280.3642

> <PUBCHEM_OPENEYE_CAN_SMILES>
CC(C)(C)CC(=O)NC1=CC2=C(C=C1)NC3=CC=CC=C32

> <PUBCHEM_OPENEYE_ISO_SMILES>
CC(C)(C)CC(=O)NC1=CC2=C(C=C1)NC3=CC=CC=C32

> <PUBCHEM_CACTVS_TPSA>
44.9

> <PUBCHEM_MONOISOTOPIC_WEIGHT>
280.157563

> <PUBCHEM_TOTAL_CHARGE>
0

> <PUBCHEM_HEAVY_ATOM_COUNT>
21

> <PUBCHEM_ATOM_DEF_STEREO_COUNT>
0

> <PUBCHEM_ATOM_UDEF_STEREO_COUNT>
0

> <PUBCHEM_BOND_DEF_STEREO_COUNT>
0

> <PUBCHEM_BOND_UDEF_STEREO_COUNT>
0

> <PUBCHEM_ISOTOPIC_ATOM_COUNT>
0

> <PUBCHEM_COMPONENT_COUNT>
1

> <PUBCHEM_CACTVS_TAUTO_COUNT>
3

> <PUBCHEM_COORDINATE_TYPE>
1
5
255

> <PUBCHEM_BONDANNOTATIONS>
10  11  8
10  12  8
10  15  8
11  16  8
12  14  8
12  18  8
13  15  8
13  17  8
14  19  8
16  17  8
18  20  8
19  21  8
20  21  8
3  11  8
3  14  8

$$$$
43917281
  -OEChem-11301217532D

 35 37  0     0  0  0  0  0  0999 V2000
    8.6907   -0.0447    0.0000 O   0  0  0  0  0  0  0  0  0  0  0  0
    4.5274    1.6619    0.0000 N   0  0  0  0  0  0  0  0  0  0  0  0
    7.3991   -1.1987    0.0000 N   0  0  0  0  0  0  0  0  0  0  0  0
    5.0274    0.1230    0.0000 C   0  0  0  0  0  0  0  0  0  0  0  0
    4.0274    0.1230    0.0000 C   0  0  0  0  0  0  0  0  0  0  0  0
    5.3364    1.0741    0.0000 C   0  0  0  0  0  0  0  0  0  0  0  0
    3.7183    1.0741    0.0000 C   0  0  0  0  0  0  0  0  0  0  0  0
    5.7123   -0.6617    0.0000 C   0  0  0  0  0  0  0  0  0  0  0  0
    6.7328   -0.4530    0.0000 C   0  0  0  0  0  0  0  0  0  0  0  0
    6.3518    1.3063    0.0000 C   0  0  0  0  0  0  0  0  0  0  0  0
    3.3424   -0.6617    0.0000 C   0  0  0  0  0  0  0  0  0  0  0  0
    7.0547    0.5377    0.0000 C   0  0  0  0  0  0  0  0  0  0  0  0
    2.7029    1.3063    0.0000 C   0  0  0  0  0  0  0  0  0  0  0  0
    9.0443   -1.7403    0.0000 C   0  0  0  0  0  0  0  0  0  0  0  0
    2.3219   -0.4530    0.0000 C   0  0  0  0  0  0  0  0  0  0  0  0
    2.0000    0.5377    0.0000 C   0  0  0  0  0  0  0  0  0  0  0  0
    8.3780   -0.9946    0.0000 C   0  0  0  0  0  0  0  0  0  0  0  0
   10.0232   -1.5362    0.0000 C   0  0  0  0  0  0  0  0  0  0  0  0
   10.6895   -2.2819    0.0000 C   0  0  0  0  0  0  0  0  0  0  0  0
    4.5274    2.2819    0.0000 H   0  0  0  0  0  0  0  0  0  0  0  0
    5.5139   -1.2491    0.0000 H   0  0  0  0  0  0  0  0  0  0  0  0
    6.5365    1.8982    0.0000 H   0  0  0  0  0  0  0  0  0  0  0  0
    3.5408   -1.2491    0.0000 H   0  0  0  0  0  0  0  0  0  0  0  0
    7.6607    0.6689    0.0000 H   0  0  0  0  0  0  0  0  0  0  0  0
    2.5182    1.8982    0.0000 H   0  0  0  0  0  0  0  0  0  0  0  0
    7.2052   -1.7876    0.0000 H   0  0  0  0  0  0  0  0  0  0  0  0
    8.5172   -2.0668    0.0000 H   0  0  0  0  0  0  0  0  0  0  0  0
    9.2743   -2.3160    0.0000 H   0  0  0  0  0  0  0  0  0  0  0  0
    1.9088   -0.9153    0.0000 H   0  0  0  0  0  0  0  0  0  0  0  0
    1.3940    0.6689    0.0000 H   0  0  0  0  0  0  0  0  0  0  0  0
   10.5503   -1.2096    0.0000 H   0  0  0  0  0  0  0  0  0  0  0  0
    9.7932   -0.9604    0.0000 H   0  0  0  0  0  0  0  0  0  0  0  0
   10.2272   -2.6950    0.0000 H   0  0  0  0  0  0  0  0  0  0  0  0
   11.1026   -2.7442    0.0000 H   0  0  0  0  0  0  0  0  0  0  0  0
   11.1518   -1.8688    0.0000 H   0  0  0  0  0  0  0  0  0  0  0  0
  1 17  2  0  0  0  0
  2  6  1  0  0  0  0
  2  7  1  0  0  0  0
  2 20  1  0  0  0  0
  3  9  1  0  0  0  0
  3 17  1  0  0  0  0
  3 26  1  0  0  0  0
  4  5  1  0  0  0  0
  4  6  2  0  0  0  0
  4  8  1  0  0  0  0
  5  7  1  0  0  0  0
  5 11  2  0  0  0  0
  6 10  1  0  0  0  0
  7 13  2  0  0  0  0
  8  9  2  0  0  0  0
  8 21  1  0  0  0  0
  9 12  1  0  0  0  0
 10 12  2  0  0  0  0
 10 22  1  0  0  0  0
 11 15  1  0  0  0  0
 11 23  1  0  0  0  0
 12 24  1  0  0  0  0
 13 16  1  0  0  0  0
 13 25  1  0  0  0  0
 14 17  1  0  0  0  0
 14 18  1  0  0  0  0
 14 27  1  0  0  0  0
 14 28  1  0  0  0  0
 15 16  2  0  0  0  0
 15 29  1  0  0  0  0
 16 30  1  0  0  0  0
 18 19  1  0  0  0  0
 18 31  1  0  0  0  0
 18 32  1  0  0  0  0
 19 33  1  0  0  0  0
 19 34  1  0  0  0  0
 19 35  1  0  0  0  0
M  END
> <PUBCHEM_COMPOUND_CID>
43917281

> <PUBCHEM_COMPOUND_CANONICALIZED>
1

> <PUBCHEM_CACTVS_COMPLEXITY>
331

> <PUBCHEM_CACTVS_HBOND_ACCEPTOR>
1

> <PUBCHEM_CACTVS_HBOND_DONOR>
2

> <PUBCHEM_CACTVS_ROTATABLE_BOND>
3

> <PUBCHEM_CACTVS_SUBSKEYS>
AAADceB7IAAAAAAAAAAAAAAAAAAAAWAAAAAwYAAAAAAAAFgB/AAAHgAQAAAADAiBngAywPLJkACoAyVyVACCgCAhAiAImSEwZJgIIPLAkZGEIAhglADIyAcQgMAOgACAQAACAAAAAQCAAAQAAAAAAAAAAA==

> <PUBCHEM_IUPAC_OPENEYE_NAME>
N-(9H-carbazol-3-yl)butanamide

> <PUBCHEM_IUPAC_CAS_NAME>
N-(9H-carbazol-3-yl)butanamide

> <PUBCHEM_IUPAC_NAME>
N-(9H-carbazol-3-yl)butanamide

> <PUBCHEM_IUPAC_SYSTEMATIC_NAME>
N-(9H-carbazol-3-yl)butanamide

> <PUBCHEM_IUPAC_TRADITIONAL_NAME>
N-(9H-carbazol-3-yl)butyramide

> <PUBCHEM_IUPAC_INCHI>
InChI=1S/C16H16N2O/c1-2-5-16(19)17-11-8-9-15-13(10-11)12-6-3-4-7-14(12)18-15/h3-4,6-10,18H,2,5H2,1H3,(H,17,19)

> <PUBCHEM_IUPAC_INCHIKEY>
ZHSJEUYBISZNQG-UHFFFAOYSA-N

> <PUBCHEM_XLOGP3>
3.8

> <PUBCHEM_EXACT_MASS>
252.126263

> <PUBCHEM_MOLECULAR_FORMULA>
C16H16N2O

> <PUBCHEM_MOLECULAR_WEIGHT>
252.31104

> <PUBCHEM_OPENEYE_CAN_SMILES>
CCCC(=O)NC1=CC2=C(C=C1)NC3=CC=CC=C32

> <PUBCHEM_OPENEYE_ISO_SMILES>
CCCC(=O)NC1=CC2=C(C=C1)NC3=CC=CC=C32

> <PUBCHEM_CACTVS_TPSA>
44.9

> <PUBCHEM_MONOISOTOPIC_WEIGHT>
252.126263

> <PUBCHEM_TOTAL_CHARGE>
0

> <PUBCHEM_HEAVY_ATOM_COUNT>
19

> <PUBCHEM_ATOM_DEF_STEREO_COUNT>
0

> <PUBCHEM_ATOM_UDEF_STEREO_COUNT>
0

> <PUBCHEM_BOND_DEF_STEREO_COUNT>
0

> <PUBCHEM_BOND_UDEF_STEREO_COUNT>
0

> <PUBCHEM_ISOTOPIC_ATOM_COUNT>
0

> <PUBCHEM_COMPONENT_COUNT>
1

> <PUBCHEM_CACTVS_TAUTO_COUNT>
3

> <PUBCHEM_COORDINATE_TYPE>
1
5
255

> <PUBCHEM_BONDANNOTATIONS>
10  12  8
11  15  8
13  16  8
15  16  8
2  6  8
2  7  8
4  5  8
4  6  8
4  8  8
5  11  8
5  7  8
6  10  8
7  13  8
8  9  8
9  12  8

$$$$
