32915586
  -OEChem-12041211442D

 51 53  0     0  0  0  0  0  0999 V2000
    7.9244    0.3551    0.0000 O   0  0  0  0  0  0  0  0  0  0  0  0
    7.5673    2.0499    0.0000 N   0  0  0  0  0  0  0  0  0  0  0  0
    4.6783   -2.8236    0.0000 N   0  0  0  0  0  0  0  0  0  0  0  0
    8.5458    2.2561    0.0000 C   0  0  0  0  0  0  0  0  0  0  0  0
   10.5028    2.6686    0.0000 C   0  0  0  0  0  0  0  0  0  0  0  0
    9.2136    1.5118    0.0000 C   0  0  0  0  0  0  0  0  0  0  0  0
    8.8564    3.2066    0.0000 C   0  0  0  0  0  0  0  0  0  0  0  0
   10.1921    1.7180    0.0000 C   0  0  0  0  0  0  0  0  0  0  0  0
    9.8349    3.4129    0.0000 C   0  0  0  0  0  0  0  0  0  0  0  0
   11.4813    2.8748    0.0000 C   0  0  0  0  0  0  0  0  0  0  0  0
    7.2566    1.0994    0.0000 C   0  0  0  0  0  0  0  0  0  0  0  0
    6.8994    2.7942    0.0000 C   0  0  0  0  0  0  0  0  0  0  0  0
    6.2781    0.8932    0.0000 C   0  0  0  0  0  0  0  0  0  0  0  0
    5.9674   -0.0573    0.0000 C   0  0  0  0  0  0  0  0  0  0  0  0
    4.9889   -0.2636    0.0000 C   0  0  0  0  0  0  0  0  0  0  0  0
    4.6783   -1.2141    0.0000 C   0  0  0  0  0  0  0  0  0  0  0  0
    3.7320   -1.5188    0.0000 C   0  0  0  0  0  0  0  0  0  0  0  0
    5.2619   -2.0188    0.0000 C   0  0  0  0  0  0  0  0  0  0  0  0
    3.7320   -2.5188    0.0000 C   0  0  0  0  0  0  0  0  0  0  0  0
    2.8660   -1.0188    0.0000 C   0  0  0  0  0  0  0  0  0  0  0  0
    2.8660   -3.0188    0.0000 C   0  0  0  0  0  0  0  0  0  0  0  0
    2.0000   -1.5188    0.0000 C   0  0  0  0  0  0  0  0  0  0  0  0
    2.0000   -2.5188    0.0000 C   0  0  0  0  0  0  0  0  0  0  0  0
    8.3532    1.6668    0.0000 H   0  0  0  0  0  0  0  0  0  0  0  0
   10.9169    2.2071    0.0000 H   0  0  0  0  0  0  0  0  0  0  0  0
    8.6873    1.1842    0.0000 H   0  0  0  0  0  0  0  0  0  0  0  0
    9.4449    0.9366    0.0000 H   0  0  0  0  0  0  0  0  0  0  0  0
    8.8359    3.8263    0.0000 H   0  0  0  0  0  0  0  0  0  0  0  0
    8.2426    3.2940    0.0000 H   0  0  0  0  0  0  0  0  0  0  0  0
   10.3613    3.7405    0.0000 H   0  0  0  0  0  0  0  0  0  0  0  0
    9.6037    3.9881    0.0000 H   0  0  0  0  0  0  0  0  0  0  0  0
   10.2127    1.0984    0.0000 H   0  0  0  0  0  0  0  0  0  0  0  0
   10.8059    1.6307    0.0000 H   0  0  0  0  0  0  0  0  0  0  0  0
   11.6091    2.2681    0.0000 H   0  0  0  0  0  0  0  0  0  0  0  0
   12.0880    3.0026    0.0000 H   0  0  0  0  0  0  0  0  0  0  0  0
   11.3534    3.4815    0.0000 H   0  0  0  0  0  0  0  0  0  0  0  0
    7.3609    3.2083    0.0000 H   0  0  0  0  0  0  0  0  0  0  0  0
    6.4854    3.2557    0.0000 H   0  0  0  0  0  0  0  0  0  0  0  0
    6.4380    2.3802    0.0000 H   0  0  0  0  0  0  0  0  0  0  0  0
    6.2575    1.5128    0.0000 H   0  0  0  0  0  0  0  0  0  0  0  0
    5.6643    0.9805    0.0000 H   0  0  0  0  0  0  0  0  0  0  0  0
    5.9880   -0.6770    0.0000 H   0  0  0  0  0  0  0  0  0  0  0  0
    6.5812   -0.1447    0.0000 H   0  0  0  0  0  0  0  0  0  0  0  0
    4.9684    0.3561    0.0000 H   0  0  0  0  0  0  0  0  0  0  0  0
    4.3751   -0.1762    0.0000 H   0  0  0  0  0  0  0  0  0  0  0  0
    5.8819   -2.0188    0.0000 H   0  0  0  0  0  0  0  0  0  0  0  0
    4.8709   -3.4129    0.0000 H   0  0  0  0  0  0  0  0  0  0  0  0
    2.8660   -0.3988    0.0000 H   0  0  0  0  0  0  0  0  0  0  0  0
    2.8660   -3.6388    0.0000 H   0  0  0  0  0  0  0  0  0  0  0  0
    1.4631   -1.2088    0.0000 H   0  0  0  0  0  0  0  0  0  0  0  0
    1.4631   -2.8288    0.0000 H   0  0  0  0  0  0  0  0  0  0  0  0
  1 11  2  0  0  0  0
  2  4  1  0  0  0  0
  2 11  1  0  0  0  0
  2 12  1  0  0  0  0
  3 18  1  0  0  0  0
  3 19  1  0  0  0  0
  3 47  1  0  0  0  0
  4  6  1  0  0  0  0
  4  7  1  0  0  0  0
  4 24  1  0  0  0  0
  5  8  1  0  0  0  0
  5  9  1  0  0  0  0
  5 10  1  0  0  0  0
  5 25  1  0  0  0  0
  6  8  1  0  0  0  0
  6 26  1  0  0  0  0
  6 27  1  0  0  0  0
  7  9  1  0  0  0  0
  7 28  1  0  0  0  0
  7 29  1  0  0  0  0
  8 32  1  0  0  0  0
  8 33  1  0  0  0  0
  9 30  1  0  0  0  0
  9 31  1  0  0  0  0
 10 34  1  0  0  0  0
 10 35  1  0  0  0  0
 10 36  1  0  0  0  0
 11 13  1  0  0  0  0
 12 37  1  0  0  0  0
 12 38  1  0  0  0  0
 12 39  1  0  0  0  0
 13 14  1  0  0  0  0
 13 40  1  0  0  0  0
 13 41  1  0  0  0  0
 14 15  1  0  0  0  0
 14 42  1  0  0  0  0
 14 43  1  0  0  0  0
 15 16  1  0  0  0  0
 15 44  1  0  0  0  0
 15 45  1  0  0  0  0
 16 17  1  0  0  0  0
 16 18  2  0  0  0  0
 17 19  1  0  0  0  0
 17 20  2  0  0  0  0
 18 46  1  0  0  0  0
 19 21  2  0  0  0  0
 20 22  1  0  0  0  0
 20 48  1  0  0  0  0
 21 23  1  0  0  0  0
 21 49  1  0  0  0  0
 22 23  2  0  0  0  0
 22 50  1  0  0  0  0
 23 51  1  0  0  0  0
M  END
> <PUBCHEM_COMPOUND_CID>
32915586

> <PUBCHEM_COMPOUND_CANONICALIZED>
1

> <PUBCHEM_CACTVS_COMPLEXITY>
389

> <PUBCHEM_CACTVS_HBOND_ACCEPTOR>
1

> <PUBCHEM_CACTVS_HBOND_DONOR>
1

> <PUBCHEM_CACTVS_ROTATABLE_BOND>
5

> <PUBCHEM_CACTVS_SUBSKEYS>
AAADceB7IAAAAAAAAAAAAAAAAAAAAWAAAAAwYAAAAAAAAFgB8AAAHgAQAAAADSjBngQ+wPPJkACoAzV3VACCgCAxAiAI2aE4ZJgIIPLAkZGEIAhglgDIyAcYiMCOgAAAAAACAAAQAAAAAAQAAAAAAAAAAA==

> <PUBCHEM_IUPAC_OPENEYE_NAME>
4-(1H-indol-3-yl)-N-methyl-N-(4-methylcyclohexyl)butanamide

> <PUBCHEM_IUPAC_CAS_NAME>
4-(1H-indol-3-yl)-N-methyl-N-(4-methylcyclohexyl)butanamide

> <PUBCHEM_IUPAC_NAME>
4-(1H-indol-3-yl)-N-methyl-N-(4-methylcyclohexyl)butanamide

> <PUBCHEM_IUPAC_SYSTEMATIC_NAME>
4-(1H-indol-3-yl)-N-methyl-N-(4-methylcyclohexyl)butanamide

> <PUBCHEM_IUPAC_TRADITIONAL_NAME>
4-(1H-indol-3-yl)-N-methyl-N-(4-methylcyclohexyl)butyramide

> <PUBCHEM_IUPAC_INCHI>
InChI=1S/C20H28N2O/c1-15-10-12-17(13-11-15)22(2)20(23)9-5-6-16-14-21-19-8-4-3-7-18(16)19/h3-4,7-8,14-15,17,21H,5-6,9-13H2,1-2H3

> <PUBCHEM_IUPAC_INCHIKEY>
UJRCDRYMTLZBTH-UHFFFAOYSA-N

> <PUBCHEM_XLOGP3>
4.3

> <PUBCHEM_EXACT_MASS>
312.220164

> <PUBCHEM_MOLECULAR_FORMULA>
C20H28N2O

> <PUBCHEM_MOLECULAR_WEIGHT>
312.44912

> <PUBCHEM_OPENEYE_CAN_SMILES>
CC1CCC(CC1)N(C)C(=O)CCCC2=CNC3=CC=CC=C32

> <PUBCHEM_OPENEYE_ISO_SMILES>
CC1CCC(CC1)N(C)C(=O)CCCC2=CNC3=CC=CC=C32

> <PUBCHEM_CACTVS_TPSA>
36.1

> <PUBCHEM_MONOISOTOPIC_WEIGHT>
312.220164

> <PUBCHEM_TOTAL_CHARGE>
0

> <PUBCHEM_HEAVY_ATOM_COUNT>
23

> <PUBCHEM_ATOM_DEF_STEREO_COUNT>
0

> <PUBCHEM_ATOM_UDEF_STEREO_COUNT>
0

> <PUBCHEM_BOND_DEF_STEREO_COUNT>
0

> <PUBCHEM_BOND_UDEF_STEREO_COUNT>
0

> <PUBCHEM_ISOTOPIC_ATOM_COUNT>
0

> <PUBCHEM_COMPONENT_COUNT>
1

> <PUBCHEM_CACTVS_TAUTO_COUNT>
1

> <PUBCHEM_COORDINATE_TYPE>
1
5
255

> <PUBCHEM_BONDANNOTATIONS>
16  17  8
16  18  8
17  19  8
17  20  8
19  21  8
20  22  8
21  23  8
22  23  8
3  18  8
3  19  8

$$$$
32915592
  -OEChem-12041211442D

 45 47  0     0  0  0  0  0  0999 V2000
    6.6353   -0.2233    0.0000 O   0  0  0  0  0  0  0  0  0  0  0  0
    6.2781    1.4715    0.0000 N   0  0  0  0  0  0  0  0  0  0  0  0
    4.6783   -2.2452    0.0000 N   0  0  0  0  0  0  0  0  0  0  0  0
    7.2566    1.6778    0.0000 C   0  0  0  0  0  0  0  0  0  0  0  0
    9.2136    2.0902    0.0000 C   0  0  0  0  0  0  0  0  0  0  0  0
    7.9245    0.9335    0.0000 C   0  0  0  0  0  0  0  0  0  0  0  0
    7.5673    2.6283    0.0000 C   0  0  0  0  0  0  0  0  0  0  0  0
    8.9030    1.1397    0.0000 C   0  0  0  0  0  0  0  0  0  0  0  0
    8.5458    2.8345    0.0000 C   0  0  0  0  0  0  0  0  0  0  0  0
   10.1921    2.2964    0.0000 C   0  0  0  0  0  0  0  0  0  0  0  0
    5.9674    0.5210    0.0000 C   0  0  0  0  0  0  0  0  0  0  0  0
    5.6103    2.2159    0.0000 C   0  0  0  0  0  0  0  0  0  0  0  0
    4.9889    0.3148    0.0000 C   0  0  0  0  0  0  0  0  0  0  0  0
    4.6783   -0.6357    0.0000 C   0  0  0  0  0  0  0  0  0  0  0  0
    3.7321   -0.9404    0.0000 C   0  0  0  0  0  0  0  0  0  0  0  0
    5.2619   -1.4405    0.0000 C   0  0  0  0  0  0  0  0  0  0  0  0
    3.7321   -1.9405    0.0000 C   0  0  0  0  0  0  0  0  0  0  0  0
    2.8660   -0.4404    0.0000 C   0  0  0  0  0  0  0  0  0  0  0  0
    2.8660   -2.4404    0.0000 C   0  0  0  0  0  0  0  0  0  0  0  0
    2.0000   -0.9404    0.0000 C   0  0  0  0  0  0  0  0  0  0  0  0
    2.0000   -1.9405    0.0000 C   0  0  0  0  0  0  0  0  0  0  0  0
    7.0640    1.0884    0.0000 H   0  0  0  0  0  0  0  0  0  0  0  0
    9.6277    1.6287    0.0000 H   0  0  0  0  0  0  0  0  0  0  0  0
    7.3981    0.6058    0.0000 H   0  0  0  0  0  0  0  0  0  0  0  0
    8.1557    0.3582    0.0000 H   0  0  0  0  0  0  0  0  0  0  0  0
    7.5467    3.2479    0.0000 H   0  0  0  0  0  0  0  0  0  0  0  0
    6.9535    2.7156    0.0000 H   0  0  0  0  0  0  0  0  0  0  0  0
    8.9235    0.5200    0.0000 H   0  0  0  0  0  0  0  0  0  0  0  0
    9.5168    1.0523    0.0000 H   0  0  0  0  0  0  0  0  0  0  0  0
    9.0721    3.1621    0.0000 H   0  0  0  0  0  0  0  0  0  0  0  0
    8.3145    3.4098    0.0000 H   0  0  0  0  0  0  0  0  0  0  0  0
   10.3200    1.6898    0.0000 H   0  0  0  0  0  0  0  0  0  0  0  0
   10.7988    2.4243    0.0000 H   0  0  0  0  0  0  0  0  0  0  0  0
   10.0643    2.9031    0.0000 H   0  0  0  0  0  0  0  0  0  0  0  0
    6.0717    2.6299    0.0000 H   0  0  0  0  0  0  0  0  0  0  0  0
    5.1962    2.6773    0.0000 H   0  0  0  0  0  0  0  0  0  0  0  0
    5.1488    1.8018    0.0000 H   0  0  0  0  0  0  0  0  0  0  0  0
    4.9684    0.9345    0.0000 H   0  0  0  0  0  0  0  0  0  0  0  0
    4.3751    0.4022    0.0000 H   0  0  0  0  0  0  0  0  0  0  0  0
    5.8819   -1.4405    0.0000 H   0  0  0  0  0  0  0  0  0  0  0  0
    4.8709   -2.8345    0.0000 H   0  0  0  0  0  0  0  0  0  0  0  0
    2.8660    0.1796    0.0000 H   0  0  0  0  0  0  0  0  0  0  0  0
    2.8660   -3.0605    0.0000 H   0  0  0  0  0  0  0  0  0  0  0  0
    1.4631   -0.6304    0.0000 H   0  0  0  0  0  0  0  0  0  0  0  0
    1.4631   -2.2505    0.0000 H   0  0  0  0  0  0  0  0  0  0  0  0
  1 11  2  0  0  0  0
  2  4  1  0  0  0  0
  2 11  1  0  0  0  0
  2 12  1  0  0  0  0
  3 16  1  0  0  0  0
  3 17  1  0  0  0  0
  3 41  1  0  0  0  0
  4  6  1  0  0  0  0
  4  7  1  0  0  0  0
  4 22  1  0  0  0  0
  5  8  1  0  0  0  0
  5  9  1  0  0  0  0
  5 10  1  0  0  0  0
  5 23  1  0  0  0  0
  6  8  1  0  0  0  0
  6 24  1  0  0  0  0
  6 25  1  0  0  0  0
  7  9  1  0  0  0  0
  7 26  1  0  0  0  0
  7 27  1  0  0  0  0
  8 28  1  0  0  0  0
  8 29  1  0  0  0  0
  9 30  1  0  0  0  0
  9 31  1  0  0  0  0
 10 32  1  0  0  0  0
 10 33  1  0  0  0  0
 10 34  1  0  0  0  0
 11 13  1  0  0  0  0
 12 35  1  0  0  0  0
 12 36  1  0  0  0  0
 12 37  1  0  0  0  0
 13 14  1  0  0  0  0
 13 38  1  0  0  0  0
 13 39  1  0  0  0  0
 14 15  1  0  0  0  0
 14 16  2  0  0  0  0
 15 17  1  0  0  0  0
 15 18  2  0  0  0  0
 16 40  1  0  0  0  0
 17 19  2  0  0  0  0
 18 20  1  0  0  0  0
 18 42  1  0  0  0  0
 19 21  1  0  0  0  0
 19 43  1  0  0  0  0
 20 21  2  0  0  0  0
 20 44  1  0  0  0  0
 21 45  1  0  0  0  0
M  END
> <PUBCHEM_COMPOUND_CID>
32915592

> <PUBCHEM_COMPOUND_CANONICALIZED>
1

> <PUBCHEM_CACTVS_COMPLEXITY>
362

> <PUBCHEM_CACTVS_HBOND_ACCEPTOR>
1

> <PUBCHEM_CACTVS_HBOND_DONOR>
1

> <PUBCHEM_CACTVS_ROTATABLE_BOND>
3

> <PUBCHEM_CACTVS_SUBSKEYS>
AAADceB7IAAAAAAAAAAAAAAAAAAAAWAAAAAwYAAAAAAAAFgB8AAAHgAQAAAADSjBngQ+wPPJkACoAzV3VACCgCAxAiAI2aE4ZJgIIPLAlZGEIAhglgDIyAccicCegAAAAAACAAAQAAAAAAQAAAAAAAAAAA==

> <PUBCHEM_IUPAC_OPENEYE_NAME>
2-(1H-indol-3-yl)-N-methyl-N-(4-methylcyclohexyl)acetamide

> <PUBCHEM_IUPAC_CAS_NAME>
2-(1H-indol-3-yl)-N-methyl-N-(4-methylcyclohexyl)acetamide

> <PUBCHEM_IUPAC_NAME>
2-(1H-indol-3-yl)-N-methyl-N-(4-methylcyclohexyl)acetamide

> <PUBCHEM_IUPAC_SYSTEMATIC_NAME>
2-(1H-indol-3-yl)-N-methyl-N-(4-methylcyclohexyl)ethanamide

> <PUBCHEM_IUPAC_TRADITIONAL_NAME>
2-(1H-indol-3-yl)-N-methyl-N-(4-methylcyclohexyl)acetamide

> <PUBCHEM_IUPAC_INCHI>
InChI=1S/C18H24N2O/c1-13-7-9-15(10-8-13)20(2)18(21)11-14-12-19-17-6-4-3-5-16(14)17/h3-6,12-13,15,19H,7-11H2,1-2H3

> <PUBCHEM_IUPAC_INCHIKEY>
MTRJDOHOZBJQAK-UHFFFAOYSA-N

> <PUBCHEM_XLOGP3>
3.4

> <PUBCHEM_EXACT_MASS>
284.188863

> <PUBCHEM_MOLECULAR_FORMULA>
C18H24N2O

> <PUBCHEM_MOLECULAR_WEIGHT>
284.39596

> <PUBCHEM_OPENEYE_CAN_SMILES>
CC1CCC(CC1)N(C)C(=O)CC2=CNC3=CC=CC=C32

> <PUBCHEM_OPENEYE_ISO_SMILES>
CC1CCC(CC1)N(C)C(=O)CC2=CNC3=CC=CC=C32

> <PUBCHEM_CACTVS_TPSA>
36.1

> <PUBCHEM_MONOISOTOPIC_WEIGHT>
284.188863

> <PUBCHEM_TOTAL_CHARGE>
0

> <PUBCHEM_HEAVY_ATOM_COUNT>
21

> <PUBCHEM_ATOM_DEF_STEREO_COUNT>
0

> <PUBCHEM_ATOM_UDEF_STEREO_COUNT>
0

> <PUBCHEM_BOND_DEF_STEREO_COUNT>
0

> <PUBCHEM_BOND_UDEF_STEREO_COUNT>
0

> <PUBCHEM_ISOTOPIC_ATOM_COUNT>
0

> <PUBCHEM_COMPONENT_COUNT>
1

> <PUBCHEM_CACTVS_TAUTO_COUNT>
1

> <PUBCHEM_COORDINATE_TYPE>
1
5
255

> <PUBCHEM_BONDANNOTATIONS>
14  15  8
14  16  8
15  17  8
15  18  8
17  19  8
18  20  8
19  21  8
20  21  8
3  16  8
3  17  8

$$$$
32917456
  -OEChem-12041211442D

 42 44  0     0  0  0  0  0  0999 V2000
    6.7619    1.0350    0.0000 O   0  0  0  0  0  0  0  0  0  0  0  0
    6.7619   -0.6970    0.0000 N   0  0  0  0  0  0  0  0  0  0  0  0
    4.6783    0.9737    0.0000 N   0  0  0  0  0  0  0  0  0  0  0  0
    7.7619   -0.6970    0.0000 C   0  0  0  0  0  0  0  0  0  0  0  0
    9.7619   -0.6970    0.0000 C   0  0  0  0  0  0  0  0  0  0  0  0
    8.2619    0.1690    0.0000 C   0  0  0  0  0  0  0  0  0  0  0  0
    8.2619   -1.5631    0.0000 C   0  0  0  0  0  0  0  0  0  0  0  0
    9.2619    0.1690    0.0000 C   0  0  0  0  0  0  0  0  0  0  0  0
    9.2619   -1.5631    0.0000 C   0  0  0  0  0  0  0  0  0  0  0  0
   10.7619   -0.6970    0.0000 C   0  0  0  0  0  0  0  0  0  0  0  0
    6.2619    0.1690    0.0000 C   0  0  0  0  0  0  0  0  0  0  0  0
    6.2619   -1.5631    0.0000 C   0  0  0  0  0  0  0  0  0  0  0  0
    5.2619    0.1690    0.0000 C   0  0  0  0  0  0  0  0  0  0  0  0
    4.6783   -0.6357    0.0000 C   0  0  0  0  0  0  0  0  0  0  0  0
    3.7321    0.6690    0.0000 C   0  0  0  0  0  0  0  0  0  0  0  0
    3.7321   -0.3310    0.0000 C   0  0  0  0  0  0  0  0  0  0  0  0
    2.8660    1.1690    0.0000 C   0  0  0  0  0  0  0  0  0  0  0  0
    2.8660   -0.8310    0.0000 C   0  0  0  0  0  0  0  0  0  0  0  0
    2.0000    0.6690    0.0000 C   0  0  0  0  0  0  0  0  0  0  0  0
    2.0000   -0.3310    0.0000 C   0  0  0  0  0  0  0  0  0  0  0  0
    7.4519   -0.1601    0.0000 H   0  0  0  0  0  0  0  0  0  0  0  0
   10.0719   -0.1601    0.0000 H   0  0  0  0  0  0  0  0  0  0  0  0
    8.3695    0.7796    0.0000 H   0  0  0  0  0  0  0  0  0  0  0  0
    7.6793    0.3811    0.0000 H   0  0  0  0  0  0  0  0  0  0  0  0
    7.6793   -1.7751    0.0000 H   0  0  0  0  0  0  0  0  0  0  0  0
    8.3695   -2.1736    0.0000 H   0  0  0  0  0  0  0  0  0  0  0  0
    9.8445    0.3811    0.0000 H   0  0  0  0  0  0  0  0  0  0  0  0
    9.1542    0.7796    0.0000 H   0  0  0  0  0  0  0  0  0  0  0  0
    9.1542   -2.1736    0.0000 H   0  0  0  0  0  0  0  0  0  0  0  0
    9.8445   -1.7751    0.0000 H   0  0  0  0  0  0  0  0  0  0  0  0
   10.7619   -1.3170    0.0000 H   0  0  0  0  0  0  0  0  0  0  0  0
   11.3819   -0.6970    0.0000 H   0  0  0  0  0  0  0  0  0  0  0  0
   10.7619   -0.0770    0.0000 H   0  0  0  0  0  0  0  0  0  0  0  0
    5.7249   -1.2531    0.0000 H   0  0  0  0  0  0  0  0  0  0  0  0
    5.9519   -2.1000    0.0000 H   0  0  0  0  0  0  0  0  0  0  0  0
    6.7988   -1.8731    0.0000 H   0  0  0  0  0  0  0  0  0  0  0  0
    4.8709    1.5631    0.0000 H   0  0  0  0  0  0  0  0  0  0  0  0
    4.8709   -1.2251    0.0000 H   0  0  0  0  0  0  0  0  0  0  0  0
    2.8660    1.7890    0.0000 H   0  0  0  0  0  0  0  0  0  0  0  0
    2.8660   -1.4510    0.0000 H   0  0  0  0  0  0  0  0  0  0  0  0
    1.4631    0.9790    0.0000 H   0  0  0  0  0  0  0  0  0  0  0  0
    1.4631   -0.6410    0.0000 H   0  0  0  0  0  0  0  0  0  0  0  0
  1 11  2  0  0  0  0
  2  4  1  0  0  0  0
  2 11  1  0  0  0  0
  2 12  1  0  0  0  0
  3 13  1  0  0  0  0
  3 15  1  0  0  0  0
  3 37  1  0  0  0  0
  4  6  1  0  0  0  0
  4  7  1  0  0  0  0
  4 21  1  0  0  0  0
  5  8  1  0  0  0  0
  5  9  1  0  0  0  0
  5 10  1  0  0  0  0
  5 22  1  0  0  0  0
  6  8  1  0  0  0  0
  6 23  1  0  0  0  0
  6 24  1  0  0  0  0
  7  9  1  0  0  0  0
  7 25  1  0  0  0  0
  7 26  1  0  0  0  0
  8 27  1  0  0  0  0
  8 28  1  0  0  0  0
  9 29  1  0  0  0  0
  9 30  1  0  0  0  0
 10 31  1  0  0  0  0
 10 32  1  0  0  0  0
 10 33  1  0  0  0  0
 11 13  1  0  0  0  0
 12 34  1  0  0  0  0
 12 35  1  0  0  0  0
 12 36  1  0  0  0  0
 13 14  2  0  0  0  0
 14 16  1  0  0  0  0
 14 38  1  0  0  0  0
 15 16  1  0  0  0  0
 15 17  2  0  0  0  0
 16 18  2  0  0  0  0
 17 19  1  0  0  0  0
 17 39  1  0  0  0  0
 18 20  1  0  0  0  0
 18 40  1  0  0  0  0
 19 20  2  0  0  0  0
 19 41  1  0  0  0  0
 20 42  1  0  0  0  0
M  END
> <PUBCHEM_COMPOUND_CID>
32917456

> <PUBCHEM_COMPOUND_CANONICALIZED>
1

> <PUBCHEM_CACTVS_COMPLEXITY>
349

> <PUBCHEM_CACTVS_HBOND_ACCEPTOR>
1

> <PUBCHEM_CACTVS_HBOND_DONOR>
1

> <PUBCHEM_CACTVS_ROTATABLE_BOND>
2

> <PUBCHEM_CACTVS_SUBSKEYS>
AAADceB7IAAAAAAAAAAAAAAAAAAAAWAAAAAwYAAAAAAAAFgB8AAAHgAQAAAADSjBngQywPPJkACoAyVyVACCgCAnAiAImSG4ZNgIYPLAlbGUIQhglgDIyYcYiYCeAAAAAAACAAAQAAAAAAQAAAAAAAAAAA==

> <PUBCHEM_IUPAC_OPENEYE_NAME>
N-methyl-N-(4-methylcyclohexyl)-1H-indole-2-carboxamide

> <PUBCHEM_IUPAC_CAS_NAME>
N-methyl-N-(4-methylcyclohexyl)-1H-indole-2-carboxamide

> <PUBCHEM_IUPAC_NAME>
N-methyl-N-(4-methylcyclohexyl)-1H-indole-2-carboxamide

> <PUBCHEM_IUPAC_SYSTEMATIC_NAME>
N-methyl-N-(4-methylcyclohexyl)-1H-indole-2-carboxamide

> <PUBCHEM_IUPAC_TRADITIONAL_NAME>
N-methyl-N-(4-methylcyclohexyl)-1H-indole-2-carboxamide

> <PUBCHEM_IUPAC_INCHI>
InChI=1S/C17H22N2O/c1-12-7-9-14(10-8-12)19(2)17(20)16-11-13-5-3-4-6-15(13)18-16/h3-6,11-12,14,18H,7-10H2,1-2H3

> <PUBCHEM_IUPAC_INCHIKEY>
HHLYUVCHBWSINJ-UHFFFAOYSA-N

> <PUBCHEM_XLOGP3>
4.3

> <PUBCHEM_EXACT_MASS>
270.173213

> <PUBCHEM_MOLECULAR_FORMULA>
C17H22N2O

> <PUBCHEM_MOLECULAR_WEIGHT>
270.36938

> <PUBCHEM_OPENEYE_CAN_SMILES>
CC1CCC(CC1)N(C)C(=O)C2=CC3=CC=CC=C3N2

> <PUBCHEM_OPENEYE_ISO_SMILES>
CC1CCC(CC1)N(C)C(=O)C2=CC3=CC=CC=C3N2

> <PUBCHEM_CACTVS_TPSA>
36.1

> <PUBCHEM_MONOISOTOPIC_WEIGHT>
270.173213

> <PUBCHEM_TOTAL_CHARGE>
0

> <PUBCHEM_HEAVY_ATOM_COUNT>
20

> <PUBCHEM_ATOM_DEF_STEREO_COUNT>
0

> <PUBCHEM_ATOM_UDEF_STEREO_COUNT>
0

> <PUBCHEM_BOND_DEF_STEREO_COUNT>
0

> <PUBCHEM_BOND_UDEF_STEREO_COUNT>
0

> <PUBCHEM_ISOTOPIC_ATOM_COUNT>
0

> <PUBCHEM_COMPONENT_COUNT>
1

> <PUBCHEM_CACTVS_TAUTO_COUNT>
6

> <PUBCHEM_COORDINATE_TYPE>
1
5
255

> <PUBCHEM_BONDANNOTATIONS>
13  14  8
14  16  8
15  16  8
15  17  8
16  18  8
17  19  8
18  20  8
19  20  8
3  13  8
3  15  8

$$$$
