30285064
  -OEChem-11301217422D

 28 29  0     0  0  0  0  0  0999 V2000
    2.0000   -3.1550    0.0000 Cl  0  0  0  0  0  0  0  0  0  0  0  0
    3.7320   -4.1550    0.0000 Cl  0  0  0  0  0  0  0  0  0  0  0  0
    2.8660    0.3450    0.0000 O   0  0  0  0  0  0  0  0  0  0  0  0
    4.5981    0.3450    0.0000 N   0  0  0  0  0  0  0  0  0  0  0  0
    3.7320   -1.1550    0.0000 C   0  0  0  0  0  0  0  0  0  0  0  0
    4.5981    1.3450    0.0000 C   0  0  0  0  0  0  0  0  0  0  0  0
    3.7320   -0.1550    0.0000 C   0  0  0  0  0  0  0  0  0  0  0  0
    2.8660   -1.6550    0.0000 C   0  0  0  0  0  0  0  0  0  0  0  0
    4.5981   -1.6550    0.0000 C   0  0  0  0  0  0  0  0  0  0  0  0
    5.4641    1.8450    0.0000 C   0  0  0  0  0  0  0  0  0  0  0  0
    3.7320    1.8450    0.0000 C   0  0  0  0  0  0  0  0  0  0  0  0
    5.4641    2.8450    0.0000 C   0  0  0  0  0  0  0  0  0  0  0  0
    2.8660   -2.6550    0.0000 C   0  0  0  0  0  0  0  0  0  0  0  0
    4.5981   -2.6550    0.0000 C   0  0  0  0  0  0  0  0  0  0  0  0
    3.7320    2.8450    0.0000 C   0  0  0  0  0  0  0  0  0  0  0  0
    3.7320   -3.1550    0.0000 C   0  0  0  0  0  0  0  0  0  0  0  0
    4.5981    3.3450    0.0000 C   0  0  0  0  0  0  0  0  0  0  0  0
    6.3301    3.3450    0.0000 C   0  0  0  0  0  0  0  0  0  0  0  0
    7.1962    3.8450    0.0000 C   0  0  0  0  0  0  0  0  0  0  0  0
    5.1350    0.0350    0.0000 H   0  0  0  0  0  0  0  0  0  0  0  0
    2.3291   -1.3450    0.0000 H   0  0  0  0  0  0  0  0  0  0  0  0
    5.1350   -1.3450    0.0000 H   0  0  0  0  0  0  0  0  0  0  0  0
    6.0010    1.5350    0.0000 H   0  0  0  0  0  0  0  0  0  0  0  0
    3.1951    1.5350    0.0000 H   0  0  0  0  0  0  0  0  0  0  0  0
    5.1350   -2.9650    0.0000 H   0  0  0  0  0  0  0  0  0  0  0  0
    3.1951    3.1550    0.0000 H   0  0  0  0  0  0  0  0  0  0  0  0
    4.5981    3.9650    0.0000 H   0  0  0  0  0  0  0  0  0  0  0  0
    7.7331    4.1550    0.0000 H   0  0  0  0  0  0  0  0  0  0  0  0
  1 13  1  0  0  0  0
  2 16  1  0  0  0  0
  3  7  2  0  0  0  0
  4  6  1  0  0  0  0
  4  7  1  0  0  0  0
  4 20  1  0  0  0  0
  5  7  1  0  0  0  0
  5  8  2  0  0  0  0
  5  9  1  0  0  0  0
  6 10  1  0  0  0  0
  6 11  2  0  0  0  0
  8 13  1  0  0  0  0
  8 21  1  0  0  0  0
  9 14  2  0  0  0  0
  9 22  1  0  0  0  0
 10 12  2  0  0  0  0
 10 23  1  0  0  0  0
 11 15  1  0  0  0  0
 11 24  1  0  0  0  0
 12 17  1  0  0  0  0
 12 18  1  0  0  0  0
 13 16  2  0  0  0  0
 14 16  1  0  0  0  0
 14 25  1  0  0  0  0
 15 17  2  0  0  0  0
 15 26  1  0  0  0  0
 17 27  1  0  0  0  0
 18 19  3  0  0  0  0
 19 28  1  0  0  0  0
M  END
> <PUBCHEM_COMPOUND_CID>
30285064

> <PUBCHEM_COMPOUND_CANONICALIZED>
1

> <PUBCHEM_CACTVS_COMPLEXITY>
376

> <PUBCHEM_CACTVS_HBOND_ACCEPTOR>
1

> <PUBCHEM_CACTVS_HBOND_DONOR>
1

> <PUBCHEM_CACTVS_ROTATABLE_BOND>
3

> <PUBCHEM_CACTVS_SUBSKEYS>
AAADccByIAAGAAAAAAAAAAAAAAAAAAAAAAAwYAAAAAAAAAABQAAAHgIQAAAADAqBmCAwwILAAADIGiVSUAiCAAAlBwAIikEAZsgIIDLBl5GEIQhglADIyYcYiACOBAAAYAAAAAQIAADAAAAACAAAAAAAAA==

> <PUBCHEM_IUPAC_OPENEYE_NAME>
3,4-dichloro-N-(3-ethynylphenyl)benzamide

> <PUBCHEM_IUPAC_CAS_NAME>
3,4-dichloro-N-(3-ethynylphenyl)benzamide

> <PUBCHEM_IUPAC_NAME>
3,4-dichloro-N-(3-ethynylphenyl)benzamide

> <PUBCHEM_IUPAC_SYSTEMATIC_NAME>
3,4-bis(chloranyl)-N-(3-ethynylphenyl)benzamide

> <PUBCHEM_IUPAC_TRADITIONAL_NAME>
3,4-dichloro-N-(3-ethynylphenyl)benzamide

> <PUBCHEM_IUPAC_INCHI>
InChI=1S/C15H9Cl2NO/c1-2-10-4-3-5-12(8-10)18-15(19)11-6-7-13(16)14(17)9-11/h1,3-9H,(H,18,19)

> <PUBCHEM_IUPAC_INCHIKEY>
STWANXDWTZWIMM-UHFFFAOYSA-N

> <PUBCHEM_XLOGP3>
4.7

> <PUBCHEM_EXACT_MASS>
289.006119

> <PUBCHEM_MOLECULAR_FORMULA>
C15H9Cl2NO

> <PUBCHEM_MOLECULAR_WEIGHT>
290.14406

> <PUBCHEM_OPENEYE_CAN_SMILES>
C#CC1=CC(=CC=C1)NC(=O)C2=CC(=C(C=C2)Cl)Cl

> <PUBCHEM_OPENEYE_ISO_SMILES>
C#CC1=CC(=CC=C1)NC(=O)C2=CC(=C(C=C2)Cl)Cl

> <PUBCHEM_CACTVS_TPSA>
29.1

> <PUBCHEM_MONOISOTOPIC_WEIGHT>
289.006119

> <PUBCHEM_TOTAL_CHARGE>
0

> <PUBCHEM_HEAVY_ATOM_COUNT>
19

> <PUBCHEM_ATOM_DEF_STEREO_COUNT>
0

> <PUBCHEM_ATOM_UDEF_STEREO_COUNT>
0

> <PUBCHEM_BOND_DEF_STEREO_COUNT>
0

> <PUBCHEM_BOND_UDEF_STEREO_COUNT>
0

> <PUBCHEM_ISOTOPIC_ATOM_COUNT>
0

> <PUBCHEM_COMPONENT_COUNT>
1

> <PUBCHEM_CACTVS_TAUTO_COUNT>
2

> <PUBCHEM_COORDINATE_TYPE>
1
5
255

> <PUBCHEM_BONDANNOTATIONS>
10  12  8
11  15  8
12  17  8
13  16  8
14  16  8
15  17  8
5  8  8
5  9  8
6  10  8
6  11  8
8  13  8
9  14  8

$$$$
30285625
  -OEChem-11301217422D

 51 53  0     0  0  0  0  0  0999 V2000
    5.1350   -1.4400    0.0000 S   0  0  0  0  0  0  0  0  0  0  0  0
    6.8671    2.5600    0.0000 S   0  0  0  0  0  0  0  0  0  0  0  0
    3.4030   -4.4400    0.0000 S   0  0  0  0  0  0  0  0  0  0  0  0
    6.1350   -1.4400    0.0000 O   0  0  0  0  0  0  0  0  0  0  0  0
    4.1350   -1.4400    0.0000 O   0  0  0  0  0  0  0  0  0  0  0  0
    7.8671    2.5600    0.0000 O   0  0  0  0  0  0  0  0  0  0  0  0
    5.8671    2.5600    0.0000 O   0  0  0  0  0  0  0  0  0  0  0  0
    8.5991    2.5600    0.0000 O   0  0  0  0  0  0  0  0  0  0  0  0
    3.9030   -5.3060    0.0000 O   0  0  0  0  0  0  0  0  0  0  0  0
    2.9030   -3.5740    0.0000 O   0  0  0  0  0  0  0  0  0  0  0  0
    5.1350   -0.4400    0.0000 N   0  0  0  0  0  0  0  0  0  0  0  0
    6.8671    3.5600    0.0000 N   0  0  0  0  0  0  0  0  0  0  0  0
    2.5369   -4.9400    0.0000 N   0  0  0  0  0  0  0  0  0  0  0  0
    6.8671    1.5600    0.0000 C   0  0  0  0  0  0  0  0  0  0  0  0
    5.1350   -2.4400    0.0000 C   0  0  0  0  0  0  0  0  0  0  0  0
    6.0010    0.0600    0.0000 C   0  0  0  0  0  0  0  0  0  0  0  0
    6.0010    1.0600    0.0000 C   0  0  0  0  0  0  0  0  0  0  0  0
    4.2690   -2.9400    0.0000 C   0  0  0  0  0  0  0  0  0  0  0  0
    4.2690   -3.9400    0.0000 C   0  0  0  0  0  0  0  0  0  0  0  0
    7.7331    1.0600    0.0000 C   0  0  0  0  0  0  0  0  0  0  0  0
    6.8671   -0.4400    0.0000 C   0  0  0  0  0  0  0  0  0  0  0  0
    6.0010   -2.9400    0.0000 C   0  0  0  0  0  0  0  0  0  0  0  0
    7.7331    0.0600    0.0000 C   0  0  0  0  0  0  0  0  0  0  0  0
    7.7331    4.0600    0.0000 C   0  0  0  0  0  0  0  0  0  0  0  0
    5.1350   -4.4400    0.0000 C   0  0  0  0  0  0  0  0  0  0  0  0
    6.0010   -3.9400    0.0000 C   0  0  0  0  0  0  0  0  0  0  0  0
    8.5991    3.5600    0.0000 C   0  0  0  0  0  0  0  0  0  0  0  0
    7.7331    5.0600    0.0000 C   0  0  0  0  0  0  0  0  0  0  0  0
    9.4651    4.0600    0.0000 C   0  0  0  0  0  0  0  0  0  0  0  0
    8.5991    5.5600    0.0000 C   0  0  0  0  0  0  0  0  0  0  0  0
    9.4651    5.0600    0.0000 C   0  0  0  0  0  0  0  0  0  0  0  0
    9.4651    2.0600    0.0000 C   0  0  0  0  0  0  0  0  0  0  0  0
    4.5981   -0.1300    0.0000 H   0  0  0  0  0  0  0  0  0  0  0  0
    5.4641    1.3700    0.0000 H   0  0  0  0  0  0  0  0  0  0  0  0
    3.7320   -2.6300    0.0000 H   0  0  0  0  0  0  0  0  0  0  0  0
    8.2700    1.3700    0.0000 H   0  0  0  0  0  0  0  0  0  0  0  0
    6.8671   -1.0600    0.0000 H   0  0  0  0  0  0  0  0  0  0  0  0
    6.3301    3.8700    0.0000 H   0  0  0  0  0  0  0  0  0  0  0  0
    6.5380   -2.6300    0.0000 H   0  0  0  0  0  0  0  0  0  0  0  0
    8.2700   -0.2500    0.0000 H   0  0  0  0  0  0  0  0  0  0  0  0
    5.1350   -5.0600    0.0000 H   0  0  0  0  0  0  0  0  0  0  0  0
    6.5380   -4.2500    0.0000 H   0  0  0  0  0  0  0  0  0  0  0  0
    7.1962    5.3700    0.0000 H   0  0  0  0  0  0  0  0  0  0  0  0
   10.0021    3.7500    0.0000 H   0  0  0  0  0  0  0  0  0  0  0  0
    8.5991    6.1800    0.0000 H   0  0  0  0  0  0  0  0  0  0  0  0
   10.0021    5.3700    0.0000 H   0  0  0  0  0  0  0  0  0  0  0  0
    2.5369   -5.5600    0.0000 H   0  0  0  0  0  0  0  0  0  0  0  0
    2.0000   -4.6300    0.0000 H   0  0  0  0  0  0  0  0  0  0  0  0
    9.1551    1.5231    0.0000 H   0  0  0  0  0  0  0  0  0  0  0  0
   10.0021    1.7500    0.0000 H   0  0  0  0  0  0  0  0  0  0  0  0
    9.7751    2.5969    0.0000 H   0  0  0  0  0  0  0  0  0  0  0  0
  1  4  2  0  0  0  0
  1  5  2  0  0  0  0
  1 11  1  0  0  0  0
  1 15  1  0  0  0  0
  2  6  2  0  0  0  0
  2  7  2  0  0  0  0
  2 12  1  0  0  0  0
  2 14  1  0  0  0  0
  3  9  2  0  0  0  0
  3 10  2  0  0  0  0
  3 13  1  0  0  0  0
  3 19  1  0  0  0  0
  8 27  1  0  0  0  0
  8 32  1  0  0  0  0
 11 16  1  0  0  0  0
 11 33  1  0  0  0  0
 12 24  1  0  0  0  0
 12 38  1  0  0  0  0
 13 47  1  0  0  0  0
 13 48  1  0  0  0  0
 14 17  1  0  0  0  0
 14 20  2  0  0  0  0
 15 18  1  0  0  0  0
 15 22  2  0  0  0  0
 16 17  2  0  0  0  0
 16 21  1  0  0  0  0
 17 34  1  0  0  0  0
 18 19  2  0  0  0  0
 18 35  1  0  0  0  0
 19 25  1  0  0  0  0
 20 23  1  0  0  0  0
 20 36  1  0  0  0  0
 21 23  2  0  0  0  0
 21 37  1  0  0  0  0
 22 26  1  0  0  0  0
 22 39  1  0  0  0  0
 23 40  1  0  0  0  0
 24 27  1  0  0  0  0
 24 28  2  0  0  0  0
 25 26  2  0  0  0  0
 25 41  1  0  0  0  0
 26 42  1  0  0  0  0
 27 29  2  0  0  0  0
 28 30  1  0  0  0  0
 28 43  1  0  0  0  0
 29 31  1  0  0  0  0
 29 44  1  0  0  0  0
 30 31  2  0  0  0  0
 30 45  1  0  0  0  0
 31 46  1  0  0  0  0
 32 49  1  0  0  0  0
 32 50  1  0  0  0  0
 32 51  1  0  0  0  0
M  END
> <PUBCHEM_COMPOUND_CID>
30285625

> <PUBCHEM_COMPOUND_CANONICALIZED>
1

> <PUBCHEM_CACTVS_COMPLEXITY>
936

> <PUBCHEM_CACTVS_HBOND_ACCEPTOR>
10

> <PUBCHEM_CACTVS_HBOND_DONOR>
3

> <PUBCHEM_CACTVS_ROTATABLE_BOND>
8

> <PUBCHEM_CACTVS_SUBSKEYS>
AAADceB7OABgAAAAAAAAAAAAAAAAAAAAAAAwYMAAAAAAAAABUAAAHgQQQAAACAyB0AIyx4BABAKAACRCQHDCCBAgIgAIiBgHbIgOJiKEsZuBMCRk0BEI6AeQQAAAAAAAAGAAEAAAAAAAwAAgAAAAAAAAAA==

> <PUBCHEM_IUPAC_OPENEYE_NAME>
N3-[3-[(2-methoxyphenyl)sulfamoyl]phenyl]benzene-1,3-disulfonamide

> <PUBCHEM_IUPAC_CAS_NAME>
N3-[3-[(2-methoxyphenyl)sulfamoyl]phenyl]benzene-1,3-disulfonamide

> <PUBCHEM_IUPAC_NAME>
3-N-[3-[(2-methoxyphenyl)sulfamoyl]phenyl]benzene-1,3-disulfonamide

> <PUBCHEM_IUPAC_SYSTEMATIC_NAME>
N3-[3-[(2-methoxyphenyl)sulfamoyl]phenyl]benzene-1,3-disulfonamide

> <PUBCHEM_IUPAC_TRADITIONAL_NAME>
N'-[3-[(2-methoxyphenyl)sulfamoyl]phenyl]benzene-1,3-disulfonamide

> <PUBCHEM_IUPAC_INCHI>
InChI=1S/C19H19N3O7S3/c1-29-19-11-3-2-10-18(19)22-32(27,28)16-8-4-6-14(12-16)21-31(25,26)17-9-5-7-15(13-17)30(20,23)24/h2-13,21-22H,1H3,(H2,20,23,24)

> <PUBCHEM_IUPAC_INCHIKEY>
QZSFGBSCOOJOLH-UHFFFAOYSA-N

> <PUBCHEM_XLOGP3>
1.3

> <PUBCHEM_EXACT_MASS>
497.038513

> <PUBCHEM_MOLECULAR_FORMULA>
C19H19N3O7S3

> <PUBCHEM_MOLECULAR_WEIGHT>
497.56506

> <PUBCHEM_OPENEYE_CAN_SMILES>
COC1=CC=CC=C1NS(=O)(=O)C2=CC=CC(=C2)NS(=O)(=O)C3=CC=CC(=C3)S(=O)(=O)N

> <PUBCHEM_OPENEYE_ISO_SMILES>
COC1=CC=CC=C1NS(=O)(=O)C2=CC=CC(=C2)NS(=O)(=O)C3=CC=CC(=C3)S(=O)(=O)N

> <PUBCHEM_CACTVS_TPSA>
187

> <PUBCHEM_MONOISOTOPIC_WEIGHT>
497.038513

> <PUBCHEM_TOTAL_CHARGE>
0

> <PUBCHEM_HEAVY_ATOM_COUNT>
32

> <PUBCHEM_ATOM_DEF_STEREO_COUNT>
0

> <PUBCHEM_ATOM_UDEF_STEREO_COUNT>
0

> <PUBCHEM_BOND_DEF_STEREO_COUNT>
0

> <PUBCHEM_BOND_UDEF_STEREO_COUNT>
0

> <PUBCHEM_ISOTOPIC_ATOM_COUNT>
0

> <PUBCHEM_COMPONENT_COUNT>
1

> <PUBCHEM_CACTVS_TAUTO_COUNT>
1

> <PUBCHEM_COORDINATE_TYPE>
1
5
255

> <PUBCHEM_BONDANNOTATIONS>
14  17  8
14  20  8
15  18  8
15  22  8
16  17  8
16  21  8
18  19  8
19  25  8
20  23  8
21  23  8
22  26  8
24  27  8
24  28  8
25  26  8
27  29  8
28  30  8
29  31  8
30  31  8

$$$$
30286130
  -OEChem-11301217422D

 53 54  0     0  0  0  0  0  0999 V2000
    6.3301   -1.7500    0.0000 S   0  0  0  0  0  0  0  0  0  0  0  0
    5.4641    1.7500    0.0000 S   0  0  0  0  0  0  0  0  0  0  0  0
    8.9282    1.7500    0.0000 S   0  0  0  0  0  0  0  0  0  0  0  0
    5.8301   -2.6160    0.0000 O   0  0  0  0  0  0  0  0  0  0  0  0
    6.8301   -0.8840    0.0000 O   0  0  0  0  0  0  0  0  0  0  0  0
    2.8660    0.2500    0.0000 O   0  0  0  0  0  0  0  0  0  0  0  0
    4.9641    2.6160    0.0000 O   0  0  0  0  0  0  0  0  0  0  0  0
    5.9641    0.8840    0.0000 O   0  0  0  0  0  0  0  0  0  0  0  0
    9.4282    2.6160    0.0000 O   0  0  0  0  0  0  0  0  0  0  0  0
    8.4282    0.8840    0.0000 O   0  0  0  0  0  0  0  0  0  0  0  0
    7.1962   -2.2500    0.0000 N   0  0  0  0  0  0  0  0  0  0  0  0
    4.5981    1.2500    0.0000 N   0  0  0  0  0  0  0  0  0  0  0  0
    9.7942    1.2500    0.0000 N   0  0  0  0  0  0  0  0  0  0  0  0
    5.4641   -1.2500    0.0000 C   0  0  0  0  0  0  0  0  0  0  0  0
    7.1962   -3.2500    0.0000 C   0  0  0  0  0  0  0  0  0  0  0  0
    8.0622   -1.7500    0.0000 C   0  0  0  0  0  0  0  0  0  0  0  0
    4.5981    0.2500    0.0000 C   0  0  0  0  0  0  0  0  0  0  0  0
    5.4641   -0.2500    0.0000 C   0  0  0  0  0  0  0  0  0  0  0  0
    4.5981   -1.7500    0.0000 C   0  0  0  0  0  0  0  0  0  0  0  0
    3.7320   -0.2500    0.0000 C   0  0  0  0  0  0  0  0  0  0  0  0
    6.3301    2.2500    0.0000 C   0  0  0  0  0  0  0  0  0  0  0  0
    3.7320   -1.2500    0.0000 C   0  0  0  0  0  0  0  0  0  0  0  0
    8.9282   -2.2500    0.0000 C   0  0  0  0  0  0  0  0  0  0  0  0
    8.0622   -3.7500    0.0000 C   0  0  0  0  0  0  0  0  0  0  0  0
    7.1962    1.7500    0.0000 C   0  0  0  0  0  0  0  0  0  0  0  0
    8.0622    2.2500    0.0000 C   0  0  0  0  0  0  0  0  0  0  0  0
    6.3301    3.2500    0.0000 C   0  0  0  0  0  0  0  0  0  0  0  0
    8.0622    3.2500    0.0000 C   0  0  0  0  0  0  0  0  0  0  0  0
    7.1962    3.7500    0.0000 C   0  0  0  0  0  0  0  0  0  0  0  0
    2.0000   -0.2500    0.0000 C   0  0  0  0  0  0  0  0  0  0  0  0
    8.4607   -1.2750    0.0000 H   0  0  0  0  0  0  0  0  0  0  0  0
    7.6636   -1.2750    0.0000 H   0  0  0  0  0  0  0  0  0  0  0  0
    6.5856   -3.1423    0.0000 H   0  0  0  0  0  0  0  0  0  0  0  0
    6.9841   -3.8326    0.0000 H   0  0  0  0  0  0  0  0  0  0  0  0
    6.0010    0.0600    0.0000 H   0  0  0  0  0  0  0  0  0  0  0  0
    4.5981   -2.3700    0.0000 H   0  0  0  0  0  0  0  0  0  0  0  0
    4.0611    1.5600    0.0000 H   0  0  0  0  0  0  0  0  0  0  0  0
    3.1951   -1.5600    0.0000 H   0  0  0  0  0  0  0  0  0  0  0  0
    7.7522   -4.2869    0.0000 H   0  0  0  0  0  0  0  0  0  0  0  0
    8.6182   -2.7869    0.0000 H   0  0  0  0  0  0  0  0  0  0  0  0
    9.4651   -2.5600    0.0000 H   0  0  0  0  0  0  0  0  0  0  0  0
    9.2382   -1.7131    0.0000 H   0  0  0  0  0  0  0  0  0  0  0  0
    8.5991   -4.0600    0.0000 H   0  0  0  0  0  0  0  0  0  0  0  0
    8.3722   -3.2131    0.0000 H   0  0  0  0  0  0  0  0  0  0  0  0
    7.1962    1.1300    0.0000 H   0  0  0  0  0  0  0  0  0  0  0  0
    5.7932    3.5600    0.0000 H   0  0  0  0  0  0  0  0  0  0  0  0
    8.5991    3.5600    0.0000 H   0  0  0  0  0  0  0  0  0  0  0  0
    7.1962    4.3700    0.0000 H   0  0  0  0  0  0  0  0  0  0  0  0
    1.6900    0.2869    0.0000 H   0  0  0  0  0  0  0  0  0  0  0  0
    1.4631   -0.5600    0.0000 H   0  0  0  0  0  0  0  0  0  0  0  0
    2.3100   -0.7869    0.0000 H   0  0  0  0  0  0  0  0  0  0  0  0
   10.3312    1.5600    0.0000 H   0  0  0  0  0  0  0  0  0  0  0  0
    9.7942    0.6300    0.0000 H   0  0  0  0  0  0  0  0  0  0  0  0
  1  4  2  0  0  0  0
  1  5  2  0  0  0  0
  1 11  1  0  0  0  0
  1 14  1  0  0  0  0
  2  7  2  0  0  0  0
  2  8  2  0  0  0  0
  2 12  1  0  0  0  0
  2 21  1  0  0  0  0
  3  9  2  0  0  0  0
  3 10  2  0  0  0  0
  3 13  1  0  0  0  0
  3 26  1  0  0  0  0
  6 20  1  0  0  0  0
  6 30  1  0  0  0  0
 11 15  1  0  0  0  0
 11 16  1  0  0  0  0
 12 17  1  0  0  0  0
 12 37  1  0  0  0  0
 13 52  1  0  0  0  0
 13 53  1  0  0  0  0
 14 18  2  0  0  0  0
 14 19  1  0  0  0  0
 15 24  1  0  0  0  0
 15 33  1  0  0  0  0
 15 34  1  0  0  0  0
 16 23  1  0  0  0  0
 16 31  1  0  0  0  0
 16 32  1  0  0  0  0
 17 18  1  0  0  0  0
 17 20  2  0  0  0  0
 18 35  1  0  0  0  0
 19 22  2  0  0  0  0
 19 36  1  0  0  0  0
 20 22  1  0  0  0  0
 21 25  1  0  0  0  0
 21 27  2  0  0  0  0
 22 38  1  0  0  0  0
 23 40  1  0  0  0  0
 23 41  1  0  0  0  0
 23 42  1  0  0  0  0
 24 39  1  0  0  0  0
 24 43  1  0  0  0  0
 24 44  1  0  0  0  0
 25 26  2  0  0  0  0
 25 45  1  0  0  0  0
 26 28  1  0  0  0  0
 27 29  1  0  0  0  0
 27 46  1  0  0  0  0
 28 29  2  0  0  0  0
 28 47  1  0  0  0  0
 29 48  1  0  0  0  0
 30 49  1  0  0  0  0
 30 50  1  0  0  0  0
 30 51  1  0  0  0  0
M  END
> <PUBCHEM_COMPOUND_CID>
30286130

> <PUBCHEM_COMPOUND_CANONICALIZED>
1

> <PUBCHEM_CACTVS_COMPLEXITY>
869

> <PUBCHEM_CACTVS_HBOND_ACCEPTOR>
10

> <PUBCHEM_CACTVS_HBOND_DONOR>
2

> <PUBCHEM_CACTVS_ROTATABLE_BOND>
9

> <PUBCHEM_CACTVS_SUBSKEYS>
AAADceB7OABgAAAAAAAAAAAAAAAAAAAAAAAwYAAAAAAAAAABQAAAHgQQQAAACAzB0AYyx4JABAKAACRCQHDCCBAgIgAIiBgPbIgOJiKEsZuBMCRk0BGI6AeQQAAAAIAAAGAAEAABAAAAwAAgAAAAAAAAAA==

> <PUBCHEM_IUPAC_OPENEYE_NAME>
N3-[5-(diethylsulfamoyl)-2-methoxy-phenyl]benzene-1,3-disulfonamide

> <PUBCHEM_IUPAC_CAS_NAME>
N3-[5-(diethylsulfamoyl)-2-methoxyphenyl]benzene-1,3-disulfonamide

> <PUBCHEM_IUPAC_NAME>
3-N-[5-(diethylsulfamoyl)-2-methoxyphenyl]benzene-1,3-disulfonamide

> <PUBCHEM_IUPAC_SYSTEMATIC_NAME>
N3-[5-(diethylsulfamoyl)-2-methoxy-phenyl]benzene-1,3-disulfonamide

> <PUBCHEM_IUPAC_TRADITIONAL_NAME>
N'-[5-(diethylsulfamoyl)-2-methoxy-phenyl]benzene-1,3-disulfonamide

> <PUBCHEM_IUPAC_INCHI>
InChI=1S/C17H23N3O7S3/c1-4-20(5-2)30(25,26)15-9-10-17(27-3)16(12-15)19-29(23,24)14-8-6-7-13(11-14)28(18,21)22/h6-12,19H,4-5H2,1-3H3,(H2,18,21,22)

> <PUBCHEM_IUPAC_INCHIKEY>
LYJWTJDWFNMXMI-UHFFFAOYSA-N

> <PUBCHEM_XLOGP3>
0.7

> <PUBCHEM_EXACT_MASS>
477.069813

> <PUBCHEM_MOLECULAR_FORMULA>
C17H23N3O7S3

> <PUBCHEM_MOLECULAR_WEIGHT>
477.57542

> <PUBCHEM_OPENEYE_CAN_SMILES>
CCN(CC)S(=O)(=O)C1=CC(=C(C=C1)OC)NS(=O)(=O)C2=CC=CC(=C2)S(=O)(=O)N

> <PUBCHEM_OPENEYE_ISO_SMILES>
CCN(CC)S(=O)(=O)C1=CC(=C(C=C1)OC)NS(=O)(=O)C2=CC=CC(=C2)S(=O)(=O)N

> <PUBCHEM_CACTVS_TPSA>
178

> <PUBCHEM_MONOISOTOPIC_WEIGHT>
477.069813

> <PUBCHEM_TOTAL_CHARGE>
0

> <PUBCHEM_HEAVY_ATOM_COUNT>
30

> <PUBCHEM_ATOM_DEF_STEREO_COUNT>
0

> <PUBCHEM_ATOM_UDEF_STEREO_COUNT>
0

> <PUBCHEM_BOND_DEF_STEREO_COUNT>
0

> <PUBCHEM_BOND_UDEF_STEREO_COUNT>
0

> <PUBCHEM_ISOTOPIC_ATOM_COUNT>
0

> <PUBCHEM_COMPONENT_COUNT>
1

> <PUBCHEM_CACTVS_TAUTO_COUNT>
1

> <PUBCHEM_COORDINATE_TYPE>
1
5
255

> <PUBCHEM_BONDANNOTATIONS>
14  18  8
14  19  8
17  18  8
17  20  8
19  22  8
20  22  8
21  25  8
21  27  8
25  26  8
26  28  8
27  29  8
28  29  8

$$$$
30292505
  -OEChem-11301217422D

 37 39  0     0  0  0  0  0  0999 V2000
    8.0622    0.2327    0.0000 O   0  0  0  0  0  0  0  0  0  0  0  0
    6.3301    0.2327    0.0000 N   0  0  0  0  0  0  0  0  0  0  0  0
    8.0622    2.2327    0.0000 C   0  0  0  0  0  0  0  0  0  0  0  0
    8.0622    3.2327    0.0000 C   0  0  0  0  0  0  0  0  0  0  0  0
    7.1962    1.7327    0.0000 C   0  0  0  0  0  0  0  0  0  0  0  0
    8.9561    1.6980    0.0000 C   0  0  0  0  0  0  0  0  0  0  0  0
    7.1962    3.7327    0.0000 C   0  0  0  0  0  0  0  0  0  0  0  0
    6.3301    2.2327    0.0000 C   0  0  0  0  0  0  0  0  0  0  0  0
    8.9561    3.7673    0.0000 C   0  0  0  0  0  0  0  0  0  0  0  0
    6.3301    3.2327    0.0000 C   0  0  0  0  0  0  0  0  0  0  0  0
    7.1962    0.7327    0.0000 C   0  0  0  0  0  0  0  0  0  0  0  0
    9.8622    2.2118    0.0000 C   0  0  0  0  0  0  0  0  0  0  0  0
    9.8622    3.2535    0.0000 C   0  0  0  0  0  0  0  0  0  0  0  0
    6.3301   -0.7673    0.0000 C   0  0  0  0  0  0  0  0  0  0  0  0
    3.7320   -2.2673    0.0000 C   0  0  0  0  0  0  0  0  0  0  0  0
    5.4641   -1.2673    0.0000 C   0  0  0  0  0  0  0  0  0  0  0  0
    2.8660   -1.7673    0.0000 C   0  0  0  0  0  0  0  0  0  0  0  0
    3.7320   -3.2673    0.0000 C   0  0  0  0  0  0  0  0  0  0  0  0
    4.5981   -1.7673    0.0000 C   0  0  0  0  0  0  0  0  0  0  0  0
    2.0000   -2.2673    0.0000 C   0  0  0  0  0  0  0  0  0  0  0  0
    2.8660   -3.7673    0.0000 C   0  0  0  0  0  0  0  0  0  0  0  0
    2.0000   -3.2673    0.0000 C   0  0  0  0  0  0  0  0  0  0  0  0
    8.9490    1.0780    0.0000 H   0  0  0  0  0  0  0  0  0  0  0  0
    7.1962    4.3527    0.0000 H   0  0  0  0  0  0  0  0  0  0  0  0
    5.7932    1.9227    0.0000 H   0  0  0  0  0  0  0  0  0  0  0  0
    8.9490    4.3873    0.0000 H   0  0  0  0  0  0  0  0  0  0  0  0
    5.7932    3.5427    0.0000 H   0  0  0  0  0  0  0  0  0  0  0  0
   10.3979    1.8998    0.0000 H   0  0  0  0  0  0  0  0  0  0  0  0
   10.3979    3.5656    0.0000 H   0  0  0  0  0  0  0  0  0  0  0  0
    5.7932    0.5427    0.0000 H   0  0  0  0  0  0  0  0  0  0  0  0
    6.5422   -1.3499    0.0000 H   0  0  0  0  0  0  0  0  0  0  0  0
    6.9407   -0.6597    0.0000 H   0  0  0  0  0  0  0  0  0  0  0  0
    2.8660   -1.1473    0.0000 H   0  0  0  0  0  0  0  0  0  0  0  0
    4.2690   -3.5773    0.0000 H   0  0  0  0  0  0  0  0  0  0  0  0
    1.4631   -1.9573    0.0000 H   0  0  0  0  0  0  0  0  0  0  0  0
    2.8660   -4.3873    0.0000 H   0  0  0  0  0  0  0  0  0  0  0  0
    1.4631   -3.5773    0.0000 H   0  0  0  0  0  0  0  0  0  0  0  0
  1 11  2  0  0  0  0
  2 11  1  0  0  0  0
  2 14  1  0  0  0  0
  2 30  1  0  0  0  0
  3  4  1  0  0  0  0
  3  5  1  0  0  0  0
  3  6  2  0  0  0  0
  4  7  1  0  0  0  0
  4  9  2  0  0  0  0
  5  8  2  0  0  0  0
  5 11  1  0  0  0  0
  6 12  1  0  0  0  0
  6 23  1  0  0  0  0
  7 10  2  0  0  0  0
  7 24  1  0  0  0  0
  8 10  1  0  0  0  0
  8 25  1  0  0  0  0
  9 13  1  0  0  0  0
  9 26  1  0  0  0  0
 10 27  1  0  0  0  0
 12 13  2  0  0  0  0
 12 28  1  0  0  0  0
 13 29  1  0  0  0  0
 14 16  1  0  0  0  0
 14 31  1  0  0  0  0
 14 32  1  0  0  0  0
 15 17  2  0  0  0  0
 15 18  1  0  0  0  0
 15 19  1  0  0  0  0
 16 19  3  0  0  0  0
 17 20  1  0  0  0  0
 17 33  1  0  0  0  0
 18 21  2  0  0  0  0
 18 34  1  0  0  0  0
 20 22  2  0  0  0  0
 20 35  1  0  0  0  0
 21 22  1  0  0  0  0
 21 36  1  0  0  0  0
 22 37  1  0  0  0  0
M  END
> <PUBCHEM_COMPOUND_CID>
30292505

> <PUBCHEM_COMPOUND_CANONICALIZED>
1

> <PUBCHEM_CACTVS_COMPLEXITY>
437

> <PUBCHEM_CACTVS_HBOND_ACCEPTOR>
1

> <PUBCHEM_CACTVS_HBOND_DONOR>
1

> <PUBCHEM_CACTVS_ROTATABLE_BOND>
3

> <PUBCHEM_CACTVS_SUBSKEYS>
AAADccB6IAAAAAAAAAAAAAAAAAAAAAAAAAAwYMAAAAAAAADBVAAAHgAQAAAADADBmAQwAMLAAADIEiFSEAiCAAAkAAAIiIEIBMgIIDKAlRGEIQhghgCIiYcYiMCOgAACAAAQAAAAAAQAACAAAAAAAAAAAA==

> <PUBCHEM_IUPAC_OPENEYE_NAME>
N-(3-phenylprop-2-ynyl)naphthalene-1-carboxamide

> <PUBCHEM_IUPAC_CAS_NAME>
N-(3-phenylprop-2-ynyl)-1-naphthalenecarboxamide

> <PUBCHEM_IUPAC_NAME>
N-(3-phenylprop-2-ynyl)naphthalene-1-carboxamide

> <PUBCHEM_IUPAC_SYSTEMATIC_NAME>
N-(3-phenylprop-2-ynyl)naphthalene-1-carboxamide

> <PUBCHEM_IUPAC_TRADITIONAL_NAME>
N-(3-phenylprop-2-ynyl)-1-naphthamide

> <PUBCHEM_IUPAC_INCHI>
InChI=1S/C20H15NO/c22-20(21-15-7-10-16-8-2-1-3-9-16)19-14-6-12-17-11-4-5-13-18(17)19/h1-6,8-9,11-14H,15H2,(H,21,22)

> <PUBCHEM_IUPAC_INCHIKEY>
JZGOJQMSOYVFOJ-UHFFFAOYSA-N

> <PUBCHEM_XLOGP3>
4.7

> <PUBCHEM_EXACT_MASS>
285.115364

> <PUBCHEM_MOLECULAR_FORMULA>
C20H15NO

> <PUBCHEM_MOLECULAR_WEIGHT>
285.3392

> <PUBCHEM_OPENEYE_CAN_SMILES>
C1=CC=C(C=C1)C#CCNC(=O)C2=CC=CC3=CC=CC=C32

> <PUBCHEM_OPENEYE_ISO_SMILES>
C1=CC=C(C=C1)C#CCNC(=O)C2=CC=CC3=CC=CC=C32

> <PUBCHEM_CACTVS_TPSA>
29.1

> <PUBCHEM_MONOISOTOPIC_WEIGHT>
285.115364

> <PUBCHEM_TOTAL_CHARGE>
0

> <PUBCHEM_HEAVY_ATOM_COUNT>
22

> <PUBCHEM_ATOM_DEF_STEREO_COUNT>
0

> <PUBCHEM_ATOM_UDEF_STEREO_COUNT>
0

> <PUBCHEM_BOND_DEF_STEREO_COUNT>
0

> <PUBCHEM_BOND_UDEF_STEREO_COUNT>
0

> <PUBCHEM_ISOTOPIC_ATOM_COUNT>
0

> <PUBCHEM_COMPONENT_COUNT>
1

> <PUBCHEM_CACTVS_TAUTO_COUNT>
2

> <PUBCHEM_COORDINATE_TYPE>
1
5
255

> <PUBCHEM_BONDANNOTATIONS>
12  13  8
15  17  8
15  18  8
17  20  8
18  21  8
20  22  8
21  22  8
3  4  8
3  5  8
3  6  8
4  7  8
4  9  8
5  8  8
6  12  8
7  10  8
8  10  8
9  13  8

$$$$
