1129350
  -OEChem-08231220532D

 29 30  0     0  0  0  0  0  0999 V2000
    2.0000   -1.0000    0.0000 Cl  0  0  0  0  0  0  0  0  0  0  0  0
    3.7320   -2.0000    0.0000 O   0  0  0  0  0  0  0  0  0  0  0  0
    4.5981   -0.5000    0.0000 N   0  0  0  0  0  0  0  0  0  0  0  0
    6.3301   -0.5000    0.0000 C   0  0  0  0  0  0  0  0  0  0  0  0
    5.4641   -1.0000    0.0000 C   0  0  0  0  0  0  0  0  0  0  0  0
    6.3301    0.5000    0.0000 C   0  0  0  0  0  0  0  0  0  0  0  0
    7.1962   -1.0000    0.0000 C   0  0  0  0  0  0  0  0  0  0  0  0
    5.4641   -2.0000    0.0000 C   0  0  0  0  0  0  0  0  0  0  0  0
    7.1962    1.0000    0.0000 C   0  0  0  0  0  0  0  0  0  0  0  0
    5.4641    1.0000    0.0000 C   0  0  0  0  0  0  0  0  0  0  0  0
    7.1962   -2.0000    0.0000 C   0  0  0  0  0  0  0  0  0  0  0  0
    6.3301   -2.5000    0.0000 C   0  0  0  0  0  0  0  0  0  0  0  0
    7.1962    2.0000    0.0000 C   0  0  0  0  0  0  0  0  0  0  0  0
    5.4641    2.0000    0.0000 C   0  0  0  0  0  0  0  0  0  0  0  0
    6.3301    2.5000    0.0000 C   0  0  0  0  0  0  0  0  0  0  0  0
    3.7320   -1.0000    0.0000 C   0  0  0  0  0  0  0  0  0  0  0  0
    2.8660   -0.5000    0.0000 C   0  0  0  0  0  0  0  0  0  0  0  0
    7.7331   -0.6900    0.0000 H   0  0  0  0  0  0  0  0  0  0  0  0
    4.9272   -2.3100    0.0000 H   0  0  0  0  0  0  0  0  0  0  0  0
    7.7331    0.6900    0.0000 H   0  0  0  0  0  0  0  0  0  0  0  0
    4.9272    0.6900    0.0000 H   0  0  0  0  0  0  0  0  0  0  0  0
    4.5981    0.1200    0.0000 H   0  0  0  0  0  0  0  0  0  0  0  0
    7.7331   -2.3100    0.0000 H   0  0  0  0  0  0  0  0  0  0  0  0
    6.3301   -3.1200    0.0000 H   0  0  0  0  0  0  0  0  0  0  0  0
    7.7331    2.3100    0.0000 H   0  0  0  0  0  0  0  0  0  0  0  0
    4.9272    2.3100    0.0000 H   0  0  0  0  0  0  0  0  0  0  0  0
    6.3301    3.1200    0.0000 H   0  0  0  0  0  0  0  0  0  0  0  0
    3.2646   -0.0251    0.0000 H   0  0  0  0  0  0  0  0  0  0  0  0
    2.4675   -0.0251    0.0000 H   0  0  0  0  0  0  0  0  0  0  0  0
  1 17  1  0  0  0  0
  2 16  2  0  0  0  0
  3  5  1  0  0  0  0
  3 16  1  0  0  0  0
  3 22  1  0  0  0  0
  4  5  1  0  0  0  0
  4  6  1  0  0  0  0
  4  7  2  0  0  0  0
  5  8  2  0  0  0  0
  6  9  2  0  0  0  0
  6 10  1  0  0  0  0
  7 11  1  0  0  0  0
  7 18  1  0  0  0  0
  8 12  1  0  0  0  0
  8 19  1  0  0  0  0
  9 13  1  0  0  0  0
  9 20  1  0  0  0  0
 10 14  2  0  0  0  0
 10 21  1  0  0  0  0
 11 12  2  0  0  0  0
 11 23  1  0  0  0  0
 12 24  1  0  0  0  0
 13 15  2  0  0  0  0
 13 25  1  0  0  0  0
 14 15  1  0  0  0  0
 14 26  1  0  0  0  0
 15 27  1  0  0  0  0
 16 17  1  0  0  0  0
 17 28  1  0  0  0  0
 17 29  1  0  0  0  0
M  END
> <PUBCHEM_COMPOUND_CID>
1129350

> <PUBCHEM_COMPOUND_CANONICALIZED>
1

> <PUBCHEM_CACTVS_COMPLEXITY>
251

> <PUBCHEM_CACTVS_HBOND_ACCEPTOR>
1

> <PUBCHEM_CACTVS_HBOND_DONOR>
1

> <PUBCHEM_CACTVS_ROTATABLE_BOND>
3

> <PUBCHEM_CACTVS_SUBSKEYS>
AAADccByIAAEAAAAAAAAAAAAAAAAAAAAAAAwYAAAAAAAAAABQAAAHgIQAAAADAuBmEAwwILAAACIAiVSUACCAAAhAgAIiAAAZIhIICLAkZHEIAhglADIyAcQgMAOgAAAAAACAAAAAAAAAAQAAAAAAAAAAA==

> <PUBCHEM_IUPAC_OPENEYE_NAME>
2-chloro-N-(2-phenylphenyl)acetamide

> <PUBCHEM_IUPAC_CAS_NAME>
2-chloro-N-(2-phenylphenyl)acetamide

> <PUBCHEM_IUPAC_NAME>
2-chloro-N-(2-phenylphenyl)acetamide

> <PUBCHEM_IUPAC_SYSTEMATIC_NAME>
2-chloranyl-N-(2-phenylphenyl)ethanamide

> <PUBCHEM_IUPAC_TRADITIONAL_NAME>
2-chloro-N-(2-phenylphenyl)acetamide

> <PUBCHEM_IUPAC_INCHI>
InChI=1S/C14H12ClNO/c15-10-14(17)16-13-9-5-4-8-12(13)11-6-2-1-3-7-11/h1-9H,10H2,(H,16,17)

> <PUBCHEM_IUPAC_INCHIKEY>
BDDDKTKNLZLTQD-UHFFFAOYSA-N

> <PUBCHEM_XLOGP3>
2.6

> <PUBCHEM_EXACT_MASS>
245.060742

> <PUBCHEM_MOLECULAR_FORMULA>
C14H12ClNO

> <PUBCHEM_MOLECULAR_WEIGHT>
245.70418

> <PUBCHEM_OPENEYE_CAN_SMILES>
C1=CC=C(C=C1)C2=CC=CC=C2NC(=O)CCl

> <PUBCHEM_OPENEYE_ISO_SMILES>
C1=CC=C(C=C1)C2=CC=CC=C2NC(=O)CCl

> <PUBCHEM_CACTVS_TPSA>
29.1

> <PUBCHEM_MONOISOTOPIC_WEIGHT>
245.060742

> <PUBCHEM_TOTAL_CHARGE>
0

> <PUBCHEM_HEAVY_ATOM_COUNT>
17

> <PUBCHEM_ATOM_DEF_STEREO_COUNT>
0

> <PUBCHEM_ATOM_UDEF_STEREO_COUNT>
0

> <PUBCHEM_BOND_DEF_STEREO_COUNT>
0

> <PUBCHEM_BOND_UDEF_STEREO_COUNT>
0

> <PUBCHEM_ISOTOPIC_ATOM_COUNT>
0

> <PUBCHEM_COMPONENT_COUNT>
1

> <PUBCHEM_CACTVS_TAUTO_COUNT>
3

> <PUBCHEM_COORDINATE_TYPE>
1
5
255

> <PUBCHEM_BONDANNOTATIONS>
10  14  8
11  12  8
13  15  8
14  15  8
4  5  8
4  7  8
5  8  8
6  10  8
6  9  8
7  11  8
8  12  8
9  13  8

$$$$
1129482
  -OEChem-08231220532D

 55 57  0     0  0  0  0  0  0999 V2000
   10.6603   -1.9400    0.0000 S   0  0  0  0  0  0  0  0  0  0  0  0
   10.1603   -2.8060    0.0000 O   0  0  0  0  0  0  0  0  0  0  0  0
   11.1603   -1.0740    0.0000 O   0  0  0  0  0  0  0  0  0  0  0  0
   13.2583    0.5600    0.0000 O   0  0  0  0  0  0  0  0  0  0  0  0
    2.8660    2.5600    0.0000 O   0  0  0  0  0  0  0  0  0  0  0  0
   14.9904   -2.4400    0.0000 O   0  0  0  0  0  0  0  0  0  0  0  0
    4.5981   -1.4400    0.0000 O   0  0  0  0  0  0  0  0  0  0  0  0
   11.5263   -2.4400    0.0000 N   0  0  0  0  0  0  0  0  0  0  0  0
    7.1962    0.0600    0.0000 N   0  0  0  0  0  0  0  0  0  0  0  0
   13.2583   -2.4400    0.0000 N   0  0  0  0  0  0  0  0  0  0  0  0
   14.1244   -0.9400    0.0000 N   0  0  0  0  0  0  0  0  0  0  0  0
    9.7942   -1.4400    0.0000 C   0  0  0  0  0  0  0  0  0  0  0  0
    9.7942   -0.4400    0.0000 C   0  0  0  0  0  0  0  0  0  0  0  0
    8.9282   -1.9400    0.0000 C   0  0  0  0  0  0  0  0  0  0  0  0
    8.0622   -0.4400    0.0000 C   0  0  0  0  0  0  0  0  0  0  0  0
    8.9282    0.0600    0.0000 C   0  0  0  0  0  0  0  0  0  0  0  0
    8.0622   -1.4400    0.0000 C   0  0  0  0  0  0  0  0  0  0  0  0
   12.3923   -1.9400    0.0000 C   0  0  0  0  0  0  0  0  0  0  0  0
   12.3923   -0.9400    0.0000 C   0  0  0  0  0  0  0  0  0  0  0  0
    6.3301   -0.4400    0.0000 C   0  0  0  0  0  0  0  0  0  0  0  0
    3.7320    0.0600    0.0000 C   0  0  0  0  0  0  0  0  0  0  0  0
    5.4641    0.0600    0.0000 C   0  0  0  0  0  0  0  0  0  0  0  0
    4.5981   -0.4400    0.0000 C   0  0  0  0  0  0  0  0  0  0  0  0
   13.2583   -0.4400    0.0000 C   0  0  0  0  0  0  0  0  0  0  0  0
    3.7320    1.0600    0.0000 C   0  0  0  0  0  0  0  0  0  0  0  0
    2.8660   -0.4400    0.0000 C   0  0  0  0  0  0  0  0  0  0  0  0
    2.8660    1.5600    0.0000 C   0  0  0  0  0  0  0  0  0  0  0  0
   14.1244   -1.9400    0.0000 C   0  0  0  0  0  0  0  0  0  0  0  0
    2.0000    0.0600    0.0000 C   0  0  0  0  0  0  0  0  0  0  0  0
    2.0000    1.0600    0.0000 C   0  0  0  0  0  0  0  0  0  0  0  0
   14.1244    1.0600    0.0000 C   0  0  0  0  0  0  0  0  0  0  0  0
    2.0000    3.0600    0.0000 C   0  0  0  0  0  0  0  0  0  0  0  0
   15.8564   -1.9400    0.0000 C   0  0  0  0  0  0  0  0  0  0  0  0
   10.3312   -0.1300    0.0000 H   0  0  0  0  0  0  0  0  0  0  0  0
    8.9282   -2.5600    0.0000 H   0  0  0  0  0  0  0  0  0  0  0  0
    8.9282    0.6800    0.0000 H   0  0  0  0  0  0  0  0  0  0  0  0
    7.5252   -1.7500    0.0000 H   0  0  0  0  0  0  0  0  0  0  0  0
   11.5263   -3.0600    0.0000 H   0  0  0  0  0  0  0  0  0  0  0  0
    7.1962    0.6800    0.0000 H   0  0  0  0  0  0  0  0  0  0  0  0
   11.8554   -0.6300    0.0000 H   0  0  0  0  0  0  0  0  0  0  0  0
    6.3301   -1.0600    0.0000 H   0  0  0  0  0  0  0  0  0  0  0  0
    5.4641    0.6800    0.0000 H   0  0  0  0  0  0  0  0  0  0  0  0
    4.2690    1.3700    0.0000 H   0  0  0  0  0  0  0  0  0  0  0  0
    2.8660   -1.0600    0.0000 H   0  0  0  0  0  0  0  0  0  0  0  0
    1.4631   -0.2500    0.0000 H   0  0  0  0  0  0  0  0  0  0  0  0
    1.4631    1.3700    0.0000 H   0  0  0  0  0  0  0  0  0  0  0  0
   14.4344    0.5231    0.0000 H   0  0  0  0  0  0  0  0  0  0  0  0
   14.6613    1.3700    0.0000 H   0  0  0  0  0  0  0  0  0  0  0  0
   13.8144    1.5969    0.0000 H   0  0  0  0  0  0  0  0  0  0  0  0
    2.3100    3.5969    0.0000 H   0  0  0  0  0  0  0  0  0  0  0  0
    1.4631    3.3700    0.0000 H   0  0  0  0  0  0  0  0  0  0  0  0
    1.6900    2.5231    0.0000 H   0  0  0  0  0  0  0  0  0  0  0  0
   16.1664   -2.4769    0.0000 H   0  0  0  0  0  0  0  0  0  0  0  0
   16.3933   -1.6300    0.0000 H   0  0  0  0  0  0  0  0  0  0  0  0
   15.5464   -1.4031    0.0000 H   0  0  0  0  0  0  0  0  0  0  0  0
  1  2  2  0  0  0  0
  1  3  2  0  0  0  0
  1  8  1  0  0  0  0
  1 12  1  0  0  0  0
  4 24  1  0  0  0  0
  4 31  1  0  0  0  0
  5 27  1  0  0  0  0
  5 32  1  0  0  0  0
  6 28  1  0  0  0  0
  6 33  1  0  0  0  0
  7 23  2  0  0  0  0
  8 18  1  0  0  0  0
  8 38  1  0  0  0  0
  9 15  1  0  0  0  0
  9 20  1  0  0  0  0
  9 39  1  0  0  0  0
 10 18  1  0  0  0  0
 10 28  2  0  0  0  0
 11 24  2  0  0  0  0
 11 28  1  0  0  0  0
 12 13  2  0  0  0  0
 12 14  1  0  0  0  0
 13 16  1  0  0  0  0
 13 34  1  0  0  0  0
 14 17  2  0  0  0  0
 14 35  1  0  0  0  0
 15 16  2  0  0  0  0
 15 17  1  0  0  0  0
 16 36  1  0  0  0  0
 17 37  1  0  0  0  0
 18 19  2  0  0  0  0
 19 24  1  0  0  0  0
 19 40  1  0  0  0  0
 20 22  2  3  0  0  0
 20 41  1  0  0  0  0
 21 23  1  0  0  0  0
 21 25  2  0  0  0  0
 21 26  1  0  0  0  0
 22 23  1  0  0  0  0
 22 42  1  0  0  0  0
 25 27  1  0  0  0  0
 25 43  1  0  0  0  0
 26 29  2  0  0  0  0
 26 44  1  0  0  0  0
 27 30  2  0  0  0  0
 29 30  1  0  0  0  0
 29 45  1  0  0  0  0
 30 46  1  0  0  0  0
 31 47  1  0  0  0  0
 31 48  1  0  0  0  0
 31 49  1  0  0  0  0
 32 50  1  0  0  0  0
 32 51  1  0  0  0  0
 32 52  1  0  0  0  0
 33 53  1  0  0  0  0
 33 54  1  0  0  0  0
 33 55  1  0  0  0  0
M  END
> <PUBCHEM_COMPOUND_CID>
1129482

> <PUBCHEM_COMPOUND_CANONICALIZED>
1

> <PUBCHEM_CACTVS_COMPLEXITY>
751

> <PUBCHEM_CACTVS_HBOND_ACCEPTOR>
10

> <PUBCHEM_CACTVS_HBOND_DONOR>
2

> <PUBCHEM_CACTVS_ROTATABLE_BOND>
10

> <PUBCHEM_CACTVS_SUBSKEYS>
AAADceB7uABAAAAAAAAAAAAAAAAAAAAAAAA8YIAAAAAAAAAB0AAAHgQQQAAADAzB2gYz95bIFAKoAqZ2ZHDCiDklIqAJmLk+bNiMLjLE/duENShu0BtI6eeayLCOAAQBAAAAAAAACAIAAAAAAAAAAAAAAA==

> <PUBCHEM_IUPAC_OPENEYE_NAME>
N-(2,6-dimethoxypyrimidin-4-yl)-4-[[3-(3-methoxyphenyl)-3-oxo-prop-1-enyl]amino]benzenesulfonamide

> <PUBCHEM_IUPAC_CAS_NAME>
N-(2,6-dimethoxy-4-pyrimidinyl)-4-[[3-(3-methoxyphenyl)-3-oxoprop-1-enyl]amino]benzenesulfonamide

> <PUBCHEM_IUPAC_NAME>
N-(2,6-dimethoxypyrimidin-4-yl)-4-[[3-(3-methoxyphenyl)-3-oxoprop-1-enyl]amino]benzenesulfonamide

> <PUBCHEM_IUPAC_SYSTEMATIC_NAME>
N-(2,6-dimethoxypyrimidin-4-yl)-4-[[3-(3-methoxyphenyl)-3-oxidanylidene-prop-1-enyl]amino]benzenesulfonamide

> <PUBCHEM_IUPAC_TRADITIONAL_NAME>
N-(2,6-dimethoxypyrimidin-4-yl)-4-[[3-keto-3-(3-methoxyphenyl)prop-1-enyl]amino]benzenesulfonamide

> <PUBCHEM_IUPAC_INCHI>
InChI=1S/C22H22N4O6S/c1-30-17-6-4-5-15(13-17)19(27)11-12-23-16-7-9-18(10-8-16)33(28,29)26-20-14-21(31-2)25-22(24-20)32-3/h4-14,23H,1-3H3,(H,24,25,26)

> <PUBCHEM_IUPAC_INCHIKEY>
WEYGJZOCMZNEDI-UHFFFAOYSA-N

> <PUBCHEM_XLOGP3>
4.3

> <PUBCHEM_EXACT_MASS>
470.126005

> <PUBCHEM_MOLECULAR_FORMULA>
C22H22N4O6S

> <PUBCHEM_MOLECULAR_WEIGHT>
470.49828

> <PUBCHEM_OPENEYE_CAN_SMILES>
COC1=CC=CC(=C1)C(=O)C=CNC2=CC=C(C=C2)S(=O)(=O)NC3=CC(=NC(=N3)OC)OC

> <PUBCHEM_OPENEYE_ISO_SMILES>
COC1=CC=CC(=C1)C(=O)C=CNC2=CC=C(C=C2)S(=O)(=O)NC3=CC(=NC(=N3)OC)OC

> <PUBCHEM_CACTVS_TPSA>
137

> <PUBCHEM_MONOISOTOPIC_WEIGHT>
470.126005

> <PUBCHEM_TOTAL_CHARGE>
0

> <PUBCHEM_HEAVY_ATOM_COUNT>
33

> <PUBCHEM_ATOM_DEF_STEREO_COUNT>
0

> <PUBCHEM_ATOM_UDEF_STEREO_COUNT>
0

> <PUBCHEM_BOND_DEF_STEREO_COUNT>
0

> <PUBCHEM_BOND_UDEF_STEREO_COUNT>
1

> <PUBCHEM_ISOTOPIC_ATOM_COUNT>
0

> <PUBCHEM_COMPONENT_COUNT>
1

> <PUBCHEM_CACTVS_TAUTO_COUNT>
9

> <PUBCHEM_COORDINATE_TYPE>
1
5
255

> <PUBCHEM_BONDANNOTATIONS>
10  18  8
10  28  8
11  24  8
11  28  8
12  13  8
12  14  8
13  16  8
14  17  8
15  16  8
15  17  8
18  19  8
19  24  8
20  22  1
21  25  8
21  26  8
25  27  8
26  29  8
27  30  8
29  30  8

$$$$
1129649
  -OEChem-08231220532D

 35 36  0     0  0  0  0  0  0999 V2000
    3.7320    3.2500    0.0000 I   0  0  0  0  0  0  0  0  0  0  0  0
    6.3301   -0.2500    0.0000 O   0  0  0  0  0  0  0  0  0  0  0  0
    4.5981   -0.2500    0.0000 N   0  0  0  0  0  0  0  0  0  0  0  0
    2.8660   -1.2500    0.0000 C   0  0  0  0  0  0  0  0  0  0  0  0
    3.7320   -1.7500    0.0000 C   0  0  0  0  0  0  0  0  0  0  0  0
    4.5981   -1.2500    0.0000 C   0  0  0  0  0  0  0  0  0  0  0  0
    2.0000   -1.7500    0.0000 C   0  0  0  0  0  0  0  0  0  0  0  0
    2.8660   -0.2500    0.0000 C   0  0  0  0  0  0  0  0  0  0  0  0
    3.7320   -2.7500    0.0000 C   0  0  0  0  0  0  0  0  0  0  0  0
    5.4641   -1.7500    0.0000 C   0  0  0  0  0  0  0  0  0  0  0  0
    4.5981   -3.2500    0.0000 C   0  0  0  0  0  0  0  0  0  0  0  0
    5.4641   -2.7500    0.0000 C   0  0  0  0  0  0  0  0  0  0  0  0
    5.4641    0.2500    0.0000 C   0  0  0  0  0  0  0  0  0  0  0  0
    5.4641    1.2500    0.0000 C   0  0  0  0  0  0  0  0  0  0  0  0
    4.5981    1.7500    0.0000 C   0  0  0  0  0  0  0  0  0  0  0  0
    6.3301    1.7500    0.0000 C   0  0  0  0  0  0  0  0  0  0  0  0
    4.5981    2.7500    0.0000 C   0  0  0  0  0  0  0  0  0  0  0  0
    6.3301    2.7500    0.0000 C   0  0  0  0  0  0  0  0  0  0  0  0
    5.4641    3.2500    0.0000 C   0  0  0  0  0  0  0  0  0  0  0  0
    2.8660   -1.8700    0.0000 H   0  0  0  0  0  0  0  0  0  0  0  0
    3.4860   -0.2500    0.0000 H   0  0  0  0  0  0  0  0  0  0  0  0
    2.8660    0.3700    0.0000 H   0  0  0  0  0  0  0  0  0  0  0  0
    1.6900   -1.2131    0.0000 H   0  0  0  0  0  0  0  0  0  0  0  0
    1.4631   -2.0600    0.0000 H   0  0  0  0  0  0  0  0  0  0  0  0
    2.3100   -2.2869    0.0000 H   0  0  0  0  0  0  0  0  0  0  0  0
    2.2460   -0.2500    0.0000 H   0  0  0  0  0  0  0  0  0  0  0  0
    3.1951   -3.0600    0.0000 H   0  0  0  0  0  0  0  0  0  0  0  0
    6.0010   -1.4400    0.0000 H   0  0  0  0  0  0  0  0  0  0  0  0
    4.0611    0.0600    0.0000 H   0  0  0  0  0  0  0  0  0  0  0  0
    4.5981   -3.8700    0.0000 H   0  0  0  0  0  0  0  0  0  0  0  0
    6.0010   -3.0600    0.0000 H   0  0  0  0  0  0  0  0  0  0  0  0
    4.0611    1.4400    0.0000 H   0  0  0  0  0  0  0  0  0  0  0  0
    6.8671    1.4400    0.0000 H   0  0  0  0  0  0  0  0  0  0  0  0
    6.8671    3.0600    0.0000 H   0  0  0  0  0  0  0  0  0  0  0  0
    5.4641    3.8700    0.0000 H   0  0  0  0  0  0  0  0  0  0  0  0
  1 17  1  0  0  0  0
  2 13  2  0  0  0  0
  3  6  1  0  0  0  0
  3 13  1  0  0  0  0
  3 29  1  0  0  0  0
  4  5  1  0  0  0  0
  4  7  1  0  0  0  0
  4  8  1  0  0  0  0
  4 20  1  0  0  0  0
  5  6  1  0  0  0  0
  5  9  2  0  0  0  0
  6 10  2  0  0  0  0
  7 23  1  0  0  0  0
  7 24  1  0  0  0  0
  7 25  1  0  0  0  0
  8 21  1  0  0  0  0
  8 22  1  0  0  0  0
  8 26  1  0  0  0  0
  9 11  1  0  0  0  0
  9 27  1  0  0  0  0
 10 12  1  0  0  0  0
 10 28  1  0  0  0  0
 11 12  2  0  0  0  0
 11 30  1  0  0  0  0
 12 31  1  0  0  0  0
 13 14  1  0  0  0  0
 14 15  2  0  0  0  0
 14 16  1  0  0  0  0
 15 17  1  0  0  0  0
 15 32  1  0  0  0  0
 16 18  2  0  0  0  0
 16 33  1  0  0  0  0
 17 19  2  0  0  0  0
 18 19  1  0  0  0  0
 18 34  1  0  0  0  0
 19 35  1  0  0  0  0
M  END
> <PUBCHEM_COMPOUND_CID>
1129649

> <PUBCHEM_COMPOUND_CANONICALIZED>
1

> <PUBCHEM_CACTVS_COMPLEXITY>
305

> <PUBCHEM_CACTVS_HBOND_ACCEPTOR>
1

> <PUBCHEM_CACTVS_HBOND_DONOR>
1

> <PUBCHEM_CACTVS_ROTATABLE_BOND>
3

> <PUBCHEM_CACTVS_SUBSKEYS>
AAADceB6IAAAAgAAAAAAAAAAAAAAAAAAAAAwYAAAAAAAAAABQAAAHgAwAAAADQiDmAAywILAAACIAiVSUACCAAAlAgAIiAEAZMgIIDLAlZGEIQhglADIyYcYiMCOgAAAAAACAAAAAAAAAAQAAAAAAAAAAA==

> <PUBCHEM_IUPAC_OPENEYE_NAME>
3-iodo-N-(2-isopropylphenyl)benzamide

> <PUBCHEM_IUPAC_CAS_NAME>
3-iodo-N-(2-propan-2-ylphenyl)benzamide

> <PUBCHEM_IUPAC_NAME>
3-iodo-N-(2-propan-2-ylphenyl)benzamide

> <PUBCHEM_IUPAC_SYSTEMATIC_NAME>
3-iodanyl-N-(2-propan-2-ylphenyl)benzamide

> <PUBCHEM_IUPAC_TRADITIONAL_NAME>
3-iodo-N-o-cumenyl-benzamide

> <PUBCHEM_IUPAC_INCHI>
InChI=1S/C16H16INO/c1-11(2)14-8-3-4-9-15(14)18-16(19)12-6-5-7-13(17)10-12/h3-11H,1-2H3,(H,18,19)

> <PUBCHEM_IUPAC_INCHIKEY>
ODCYUKJXYLXXTA-UHFFFAOYSA-N

> <PUBCHEM_XLOGP3>
4

> <PUBCHEM_EXACT_MASS>
365.027662

> <PUBCHEM_MOLECULAR_FORMULA>
C16H16INO

> <PUBCHEM_MOLECULAR_WEIGHT>
365.20881

> <PUBCHEM_OPENEYE_CAN_SMILES>
CC(C)C1=CC=CC=C1NC(=O)C2=CC(=CC=C2)I

> <PUBCHEM_OPENEYE_ISO_SMILES>
CC(C)C1=CC=CC=C1NC(=O)C2=CC(=CC=C2)I

> <PUBCHEM_CACTVS_TPSA>
29.1

> <PUBCHEM_MONOISOTOPIC_WEIGHT>
365.027662

> <PUBCHEM_TOTAL_CHARGE>
0

> <PUBCHEM_HEAVY_ATOM_COUNT>
19

> <PUBCHEM_ATOM_DEF_STEREO_COUNT>
0

> <PUBCHEM_ATOM_UDEF_STEREO_COUNT>
0

> <PUBCHEM_BOND_DEF_STEREO_COUNT>
0

> <PUBCHEM_BOND_UDEF_STEREO_COUNT>
0

> <PUBCHEM_ISOTOPIC_ATOM_COUNT>
0

> <PUBCHEM_COMPONENT_COUNT>
1

> <PUBCHEM_CACTVS_TAUTO_COUNT>
2

> <PUBCHEM_COORDINATE_TYPE>
1
5
255

> <PUBCHEM_BONDANNOTATIONS>
10  12  8
11  12  8
14  15  8
14  16  8
15  17  8
16  18  8
17  19  8
18  19  8
5  6  8
5  9  8
6  10  8
9  11  8

$$$$
1137473
  -OEChem-08231220532D

 55 57  0     0  0  0  0  0  0999 V2000
    5.4641    1.5000    0.0000 S   0  0  0  0  0  0  0  0  0  0  0  0
    6.4641    1.5000    0.0000 O   0  0  0  0  0  0  0  0  0  0  0  0
    4.4641    1.5000    0.0000 O   0  0  0  0  0  0  0  0  0  0  0  0
    2.8660   -4.0000    0.0000 O   0  0  0  0  0  0  0  0  0  0  0  0
    6.3301   -4.0000    0.0000 O   0  0  0  0  0  0  0  0  0  0  0  0
    3.7320   -2.5000    0.0000 O   0  0  0  0  0  0  0  0  0  0  0  0
    8.9282    2.5000    0.0000 O   0  0  0  0  0  0  0  0  0  0  0  0
    7.1962    5.5000    0.0000 O   0  0  0  0  0  0  0  0  0  0  0  0
    5.4641    2.5000    0.0000 N   0  0  0  0  0  0  0  0  0  0  0  0
    5.4641   -2.5000    0.0000 N   0  0  0  0  0  0  0  0  0  0  0  0
    6.3301    4.0000    0.0000 N   0  0  0  0  0  0  0  0  0  0  0  0
    8.0622    4.0000    0.0000 N   0  0  0  0  0  0  0  0  0  0  0  0
    5.4641    0.5000    0.0000 C   0  0  0  0  0  0  0  0  0  0  0  0
    5.4641   -1.5000    0.0000 C   0  0  0  0  0  0  0  0  0  0  0  0
    4.5981    0.0000    0.0000 C   0  0  0  0  0  0  0  0  0  0  0  0
    6.3301    0.0000    0.0000 C   0  0  0  0  0  0  0  0  0  0  0  0
    4.5981   -1.0000    0.0000 C   0  0  0  0  0  0  0  0  0  0  0  0
    6.3301   -1.0000    0.0000 C   0  0  0  0  0  0  0  0  0  0  0  0
    4.5981   -4.0000    0.0000 C   0  0  0  0  0  0  0  0  0  0  0  0
    4.5981   -3.0000    0.0000 C   0  0  0  0  0  0  0  0  0  0  0  0
    3.7320   -4.5000    0.0000 C   0  0  0  0  0  0  0  0  0  0  0  0
    5.4641   -4.5000    0.0000 C   0  0  0  0  0  0  0  0  0  0  0  0
    6.3301    3.0000    0.0000 C   0  0  0  0  0  0  0  0  0  0  0  0
    3.7320   -5.5000    0.0000 C   0  0  0  0  0  0  0  0  0  0  0  0
    5.4641   -5.5000    0.0000 C   0  0  0  0  0  0  0  0  0  0  0  0
    4.5981   -6.0000    0.0000 C   0  0  0  0  0  0  0  0  0  0  0  0
    7.1962    2.5000    0.0000 C   0  0  0  0  0  0  0  0  0  0  0  0
    8.0622    3.0000    0.0000 C   0  0  0  0  0  0  0  0  0  0  0  0
    7.1962    4.5000    0.0000 C   0  0  0  0  0  0  0  0  0  0  0  0
    2.0000   -4.5000    0.0000 C   0  0  0  0  0  0  0  0  0  0  0  0
    7.1962   -4.5000    0.0000 C   0  0  0  0  0  0  0  0  0  0  0  0
    9.7942    3.0000    0.0000 C   0  0  0  0  0  0  0  0  0  0  0  0
    8.0622    6.0000    0.0000 C   0  0  0  0  0  0  0  0  0  0  0  0
    4.0611    0.3100    0.0000 H   0  0  0  0  0  0  0  0  0  0  0  0
    6.8671    0.3100    0.0000 H   0  0  0  0  0  0  0  0  0  0  0  0
    4.0611   -1.3100    0.0000 H   0  0  0  0  0  0  0  0  0  0  0  0
    6.8671   -1.3100    0.0000 H   0  0  0  0  0  0  0  0  0  0  0  0
    4.9272    2.8100    0.0000 H   0  0  0  0  0  0  0  0  0  0  0  0
    6.0010   -2.8100    0.0000 H   0  0  0  0  0  0  0  0  0  0  0  0
    3.1951   -5.8100    0.0000 H   0  0  0  0  0  0  0  0  0  0  0  0
    6.0010   -5.8100    0.0000 H   0  0  0  0  0  0  0  0  0  0  0  0
    4.5981   -6.6200    0.0000 H   0  0  0  0  0  0  0  0  0  0  0  0
    7.1962    1.8800    0.0000 H   0  0  0  0  0  0  0  0  0  0  0  0
    1.6900   -3.9631    0.0000 H   0  0  0  0  0  0  0  0  0  0  0  0
    1.4631   -4.8100    0.0000 H   0  0  0  0  0  0  0  0  0  0  0  0
    2.3100   -5.0369    0.0000 H   0  0  0  0  0  0  0  0  0  0  0  0
    6.8862   -5.0369    0.0000 H   0  0  0  0  0  0  0  0  0  0  0  0
    7.7331   -4.8100    0.0000 H   0  0  0  0  0  0  0  0  0  0  0  0
    7.5062   -3.9631    0.0000 H   0  0  0  0  0  0  0  0  0  0  0  0
   10.1042    2.4631    0.0000 H   0  0  0  0  0  0  0  0  0  0  0  0
   10.3312    3.3100    0.0000 H   0  0  0  0  0  0  0  0  0  0  0  0
    9.4842    3.5369    0.0000 H   0  0  0  0  0  0  0  0  0  0  0  0
    8.3722    5.4631    0.0000 H   0  0  0  0  0  0  0  0  0  0  0  0
    8.5991    6.3100    0.0000 H   0  0  0  0  0  0  0  0  0  0  0  0
    7.7522    6.5369    0.0000 H   0  0  0  0  0  0  0  0  0  0  0  0
  1  2  2  0  0  0  0
  1  3  2  0  0  0  0
  1  9  1  0  0  0  0
  1 13  1  0  0  0  0
  4 21  1  0  0  0  0
  4 30  1  0  0  0  0
  5 22  1  0  0  0  0
  5 31  1  0  0  0  0
  6 20  2  0  0  0  0
  7 28  1  0  0  0  0
  7 32  1  0  0  0  0
  8 29  1  0  0  0  0
  8 33  1  0  0  0  0
  9 23  1  0  0  0  0
  9 38  1  0  0  0  0
 10 14  1  0  0  0  0
 10 20  1  0  0  0  0
 10 39  1  0  0  0  0
 11 23  1  0  0  0  0
 11 29  2  0  0  0  0
 12 28  2  0  0  0  0
 12 29  1  0  0  0  0
 13 15  2  0  0  0  0
 13 16  1  0  0  0  0
 14 17  2  0  0  0  0
 14 18  1  0  0  0  0
 15 17  1  0  0  0  0
 15 34  1  0  0  0  0
 16 18  2  0  0  0  0
 16 35  1  0  0  0  0
 17 36  1  0  0  0  0
 18 37  1  0  0  0  0
 19 20  1  0  0  0  0
 19 21  2  0  0  0  0
 19 22  1  0  0  0  0
 21 24  1  0  0  0  0
 22 25  2  0  0  0  0
 23 27  2  0  0  0  0
 24 26  2  0  0  0  0
 24 40  1  0  0  0  0
 25 26  1  0  0  0  0
 25 41  1  0  0  0  0
 26 42  1  0  0  0  0
 27 28  1  0  0  0  0
 27 43  1  0  0  0  0
 30 44  1  0  0  0  0
 30 45  1  0  0  0  0
 30 46  1  0  0  0  0
 31 47  1  0  0  0  0
 31 48  1  0  0  0  0
 31 49  1  0  0  0  0
 32 50  1  0  0  0  0
 32 51  1  0  0  0  0
 32 52  1  0  0  0  0
 33 53  1  0  0  0  0
 33 54  1  0  0  0  0
 33 55  1  0  0  0  0
M  END
> <PUBCHEM_COMPOUND_CID>
1137473

> <PUBCHEM_COMPOUND_CANONICALIZED>
1

> <PUBCHEM_CACTVS_COMPLEXITY>
715

> <PUBCHEM_CACTVS_HBOND_ACCEPTOR>
10

> <PUBCHEM_CACTVS_HBOND_DONOR>
2

> <PUBCHEM_CACTVS_ROTATABLE_BOND>
9

> <PUBCHEM_CACTVS_SUBSKEYS>
AAADceB7uABAAAAAAAAAAAAAAAAAAAAAAAA8YIAAAAAAAAAB0AAAHgQQQAAADAyB2gIz95bIFAKoAidydHDCiDklIqAJmDk2bNiMLzbE/duENWhv9B/I6SeY6CyOAAQACAAIAAAACAAQABAAAAAAAAAAAA==

> <PUBCHEM_IUPAC_OPENEYE_NAME>
N-[4-[(2,6-dimethoxypyrimidin-4-yl)sulfamoyl]phenyl]-2,6-dimethoxy-benzamide

> <PUBCHEM_IUPAC_CAS_NAME>
N-[4-[(2,6-dimethoxy-4-pyrimidinyl)sulfamoyl]phenyl]-2,6-dimethoxybenzamide

> <PUBCHEM_IUPAC_NAME>
N-[4-[(2,6-dimethoxypyrimidin-4-yl)sulfamoyl]phenyl]-2,6-dimethoxybenzamide

> <PUBCHEM_IUPAC_SYSTEMATIC_NAME>
N-[4-[(2,6-dimethoxypyrimidin-4-yl)sulfamoyl]phenyl]-2,6-dimethoxy-benzamide

> <PUBCHEM_IUPAC_TRADITIONAL_NAME>
N-[4-[(2,6-dimethoxypyrimidin-4-yl)sulfamoyl]phenyl]-2,6-dimethoxy-benzamide

> <PUBCHEM_IUPAC_INCHI>
InChI=1S/C21H22N4O7S/c1-29-15-6-5-7-16(30-2)19(15)20(26)22-13-8-10-14(11-9-13)33(27,28)25-17-12-18(31-3)24-21(23-17)32-4/h5-12H,1-4H3,(H,22,26)(H,23,24,25)

> <PUBCHEM_IUPAC_INCHIKEY>
BSRVWSHPFJKKMO-UHFFFAOYSA-N

> <PUBCHEM_XLOGP3>
3.1

> <PUBCHEM_EXACT_MASS>
474.12092

> <PUBCHEM_MOLECULAR_FORMULA>
C21H22N4O7S

> <PUBCHEM_MOLECULAR_WEIGHT>
474.48698

> <PUBCHEM_OPENEYE_CAN_SMILES>
COC1=C(C(=CC=C1)OC)C(=O)NC2=CC=C(C=C2)S(=O)(=O)NC3=CC(=NC(=N3)OC)OC

> <PUBCHEM_OPENEYE_ISO_SMILES>
COC1=C(C(=CC=C1)OC)C(=O)NC2=CC=C(C=C2)S(=O)(=O)NC3=CC(=NC(=N3)OC)OC

> <PUBCHEM_CACTVS_TPSA>
146

> <PUBCHEM_MONOISOTOPIC_WEIGHT>
474.12092

> <PUBCHEM_TOTAL_CHARGE>
0

> <PUBCHEM_HEAVY_ATOM_COUNT>
33

> <PUBCHEM_ATOM_DEF_STEREO_COUNT>
0

> <PUBCHEM_ATOM_UDEF_STEREO_COUNT>
0

> <PUBCHEM_BOND_DEF_STEREO_COUNT>
0

> <PUBCHEM_BOND_UDEF_STEREO_COUNT>
0

> <PUBCHEM_ISOTOPIC_ATOM_COUNT>
0

> <PUBCHEM_COMPONENT_COUNT>
1

> <PUBCHEM_CACTVS_TAUTO_COUNT>
6

> <PUBCHEM_COORDINATE_TYPE>
1
5
255

> <PUBCHEM_BONDANNOTATIONS>
11  23  8
11  29  8
12  28  8
12  29  8
13  15  8
13  16  8
14  17  8
14  18  8
15  17  8
16  18  8
19  21  8
19  22  8
21  24  8
22  25  8
23  27  8
24  26  8
25  26  8
27  28  8

$$$$
1145057
  -OEChem-08231220532D

 34 36  0     0  0  0  0  0  0999 V2000
    2.0000   -3.2673    0.0000 I   0  0  0  0  0  0  0  0  0  0  0  0
    4.5981    0.2327    0.0000 O   0  0  0  0  0  0  0  0  0  0  0  0
    6.3301    0.2327    0.0000 N   0  0  0  0  0  0  0  0  0  0  0  0
    5.4641   -1.2673    0.0000 N   0  0  0  0  0  0  0  0  0  0  0  0
    7.1962    1.7327    0.0000 C   0  0  0  0  0  0  0  0  0  0  0  0
    7.1962    2.7327    0.0000 C   0  0  0  0  0  0  0  0  0  0  0  0
    6.3301    1.2327    0.0000 C   0  0  0  0  0  0  0  0  0  0  0  0
    8.0901    1.1980    0.0000 C   0  0  0  0  0  0  0  0  0  0  0  0
    6.3301    3.2327    0.0000 C   0  0  0  0  0  0  0  0  0  0  0  0
    5.4641    1.7327    0.0000 C   0  0  0  0  0  0  0  0  0  0  0  0
    8.0901    3.2673    0.0000 C   0  0  0  0  0  0  0  0  0  0  0  0
    5.4641    2.7327    0.0000 C   0  0  0  0  0  0  0  0  0  0  0  0
    8.9962    1.7118    0.0000 C   0  0  0  0  0  0  0  0  0  0  0  0
    8.9962    2.7535    0.0000 C   0  0  0  0  0  0  0  0  0  0  0  0
    5.4641   -0.2673    0.0000 C   0  0  0  0  0  0  0  0  0  0  0  0
    4.5981   -1.7673    0.0000 C   0  0  0  0  0  0  0  0  0  0  0  0
    4.5981   -2.7673    0.0000 C   0  0  0  0  0  0  0  0  0  0  0  0
    3.7320   -1.2673    0.0000 C   0  0  0  0  0  0  0  0  0  0  0  0
    3.7320   -3.2673    0.0000 C   0  0  0  0  0  0  0  0  0  0  0  0
    2.8660   -1.7673    0.0000 C   0  0  0  0  0  0  0  0  0  0  0  0
    2.8660   -2.7673    0.0000 C   0  0  0  0  0  0  0  0  0  0  0  0
    8.0829    0.5780    0.0000 H   0  0  0  0  0  0  0  0  0  0  0  0
    6.3301    3.8527    0.0000 H   0  0  0  0  0  0  0  0  0  0  0  0
    4.9272    1.4227    0.0000 H   0  0  0  0  0  0  0  0  0  0  0  0
    8.0829    3.8873    0.0000 H   0  0  0  0  0  0  0  0  0  0  0  0
    6.8671   -0.0773    0.0000 H   0  0  0  0  0  0  0  0  0  0  0  0
    4.9272    3.0427    0.0000 H   0  0  0  0  0  0  0  0  0  0  0  0
    9.5319    1.3998    0.0000 H   0  0  0  0  0  0  0  0  0  0  0  0
    9.5319    3.0656    0.0000 H   0  0  0  0  0  0  0  0  0  0  0  0
    6.0010   -1.5773    0.0000 H   0  0  0  0  0  0  0  0  0  0  0  0
    5.1350   -3.0773    0.0000 H   0  0  0  0  0  0  0  0  0  0  0  0
    3.7320   -0.6473    0.0000 H   0  0  0  0  0  0  0  0  0  0  0  0
    3.7320   -3.8873    0.0000 H   0  0  0  0  0  0  0  0  0  0  0  0
    2.3291   -1.4573    0.0000 H   0  0  0  0  0  0  0  0  0  0  0  0
  1 21  1  0  0  0  0
  2 15  2  0  0  0  0
  3  7  1  0  0  0  0
  3 15  1  0  0  0  0
  3 26  1  0  0  0  0
  4 15  1  0  0  0  0
  4 16  1  0  0  0  0
  4 30  1  0  0  0  0
  5  6  1  0  0  0  0
  5  7  1  0  0  0  0
  5  8  2  0  0  0  0
  6  9  1  0  0  0  0
  6 11  2  0  0  0  0
  7 10  2  0  0  0  0
  8 13  1  0  0  0  0
  8 22  1  0  0  0  0
  9 12  2  0  0  0  0
  9 23  1  0  0  0  0
 10 12  1  0  0  0  0
 10 24  1  0  0  0  0
 11 14  1  0  0  0  0
 11 25  1  0  0  0  0
 12 27  1  0  0  0  0
 13 14  2  0  0  0  0
 13 28  1  0  0  0  0
 14 29  1  0  0  0  0
 16 17  2  0  0  0  0
 16 18  1  0  0  0  0
 17 19  1  0  0  0  0
 17 31  1  0  0  0  0
 18 20  2  0  0  0  0
 18 32  1  0  0  0  0
 19 21  2  0  0  0  0
 19 33  1  0  0  0  0
 20 21  1  0  0  0  0
 20 34  1  0  0  0  0
M  END
> <PUBCHEM_COMPOUND_CID>
1145057

> <PUBCHEM_COMPOUND_CANONICALIZED>
1

> <PUBCHEM_CACTVS_COMPLEXITY>
355

> <PUBCHEM_CACTVS_HBOND_ACCEPTOR>
1

> <PUBCHEM_CACTVS_HBOND_DONOR>
2

> <PUBCHEM_CACTVS_ROTATABLE_BOND>
2

> <PUBCHEM_CACTVS_SUBSKEYS>
AAADccB7IAAAAgAAAAAAAAAAAAAAAAAAAAAwYMAAAAAAAADBVAAAHgAwAAAADAiDGAAxwMLAAACIAiRCUACCAAAhAgAIiAAAZIiIICLAkZGEIAholAJIyCcQgIAOgAAAQAASAAAAAACAACQAAAAAAAAAAA==

> <PUBCHEM_IUPAC_OPENEYE_NAME>
1-(4-iodophenyl)-3-(1-naphthyl)urea

> <PUBCHEM_IUPAC_CAS_NAME>
1-(4-iodophenyl)-3-(1-naphthalenyl)urea

> <PUBCHEM_IUPAC_NAME>
1-(4-iodophenyl)-3-naphthalen-1-ylurea

> <PUBCHEM_IUPAC_SYSTEMATIC_NAME>
1-(4-iodophenyl)-3-naphthalen-1-yl-urea

> <PUBCHEM_IUPAC_TRADITIONAL_NAME>
1-(4-iodophenyl)-3-(1-naphthyl)urea

> <PUBCHEM_IUPAC_INCHI>
InChI=1S/C17H13IN2O/c18-13-8-10-14(11-9-13)19-17(21)20-16-7-3-5-12-4-1-2-6-15(12)16/h1-11H,(H2,19,20,21)

> <PUBCHEM_IUPAC_INCHIKEY>
OPGQKWOFFRMTOS-UHFFFAOYSA-N

> <PUBCHEM_XLOGP3>
3.7

> <PUBCHEM_EXACT_MASS>
388.007261

> <PUBCHEM_MOLECULAR_FORMULA>
C17H13IN2O

> <PUBCHEM_MOLECULAR_WEIGHT>
388.20239

> <PUBCHEM_OPENEYE_CAN_SMILES>
C1=CC=C2C(=C1)C=CC=C2NC(=O)NC3=CC=C(C=C3)I

> <PUBCHEM_OPENEYE_ISO_SMILES>
C1=CC=C2C(=C1)C=CC=C2NC(=O)NC3=CC=C(C=C3)I

> <PUBCHEM_CACTVS_TPSA>
41.1

> <PUBCHEM_MONOISOTOPIC_WEIGHT>
388.007261

> <PUBCHEM_TOTAL_CHARGE>
0

> <PUBCHEM_HEAVY_ATOM_COUNT>
21

> <PUBCHEM_ATOM_DEF_STEREO_COUNT>
0

> <PUBCHEM_ATOM_UDEF_STEREO_COUNT>
0

> <PUBCHEM_BOND_DEF_STEREO_COUNT>
0

> <PUBCHEM_BOND_UDEF_STEREO_COUNT>
0

> <PUBCHEM_ISOTOPIC_ATOM_COUNT>
0

> <PUBCHEM_COMPONENT_COUNT>
1

> <PUBCHEM_CACTVS_TAUTO_COUNT>
3

> <PUBCHEM_COORDINATE_TYPE>
1
5
255

> <PUBCHEM_BONDANNOTATIONS>
10  12  8
11  14  8
13  14  8
16  17  8
16  18  8
17  19  8
18  20  8
19  21  8
20  21  8
5  6  8
5  7  8
5  8  8
6  11  8
6  9  8
7  10  8
8  13  8
9  12  8

$$$$
