26208663
  -OEChem-12041211292D

 39 40  0     0  0  0  0  0  0999 V2000
    6.3301   -1.0000    0.0000 O   0  0  0  0  0  0  0  0  0  0  0  0
    4.5981   -1.0000    0.0000 N   0  0  0  0  0  0  0  0  0  0  0  0
    3.7320   -2.5000    0.0000 C   0  0  0  0  0  0  0  0  0  0  0  0
    2.8660   -2.0000    0.0000 C   0  0  0  0  0  0  0  0  0  0  0  0
    4.5981   -2.0000    0.0000 C   0  0  0  0  0  0  0  0  0  0  0  0
    3.7320   -3.5000    0.0000 C   0  0  0  0  0  0  0  0  0  0  0  0
    5.4641   -2.5000    0.0000 C   0  0  0  0  0  0  0  0  0  0  0  0
    2.0000   -2.5000    0.0000 C   0  0  0  0  0  0  0  0  0  0  0  0
    4.5981   -4.0000    0.0000 C   0  0  0  0  0  0  0  0  0  0  0  0
    5.4641   -3.5000    0.0000 C   0  0  0  0  0  0  0  0  0  0  0  0
    6.3301    2.0000    0.0000 C   0  0  0  0  0  0  0  0  0  0  0  0
    7.1962    3.5000    0.0000 C   0  0  0  0  0  0  0  0  0  0  0  0
    7.1962    2.5000    0.0000 C   0  0  0  0  0  0  0  0  0  0  0  0
    5.4641   -0.5000    0.0000 C   0  0  0  0  0  0  0  0  0  0  0  0
    6.3301    1.0000    0.0000 C   0  0  0  0  0  0  0  0  0  0  0  0
    5.4641    2.5000    0.0000 C   0  0  0  0  0  0  0  0  0  0  0  0
    5.4641    0.5000    0.0000 C   0  0  0  0  0  0  0  0  0  0  0  0
    6.3301    4.0000    0.0000 C   0  0  0  0  0  0  0  0  0  0  0  0
    5.4641    3.5000    0.0000 C   0  0  0  0  0  0  0  0  0  0  0  0
    8.0622    4.0000    0.0000 C   0  0  0  0  0  0  0  0  0  0  0  0
    3.2646   -1.5250    0.0000 H   0  0  0  0  0  0  0  0  0  0  0  0
    2.4675   -1.5250    0.0000 H   0  0  0  0  0  0  0  0  0  0  0  0
    3.1951   -3.8100    0.0000 H   0  0  0  0  0  0  0  0  0  0  0  0
    6.0010   -2.1900    0.0000 H   0  0  0  0  0  0  0  0  0  0  0  0
    1.6900   -1.9631    0.0000 H   0  0  0  0  0  0  0  0  0  0  0  0
    1.4631   -2.8100    0.0000 H   0  0  0  0  0  0  0  0  0  0  0  0
    2.3100   -3.0369    0.0000 H   0  0  0  0  0  0  0  0  0  0  0  0
    4.0611   -0.6900    0.0000 H   0  0  0  0  0  0  0  0  0  0  0  0
    4.5981   -4.6200    0.0000 H   0  0  0  0  0  0  0  0  0  0  0  0
    6.0010   -3.8100    0.0000 H   0  0  0  0  0  0  0  0  0  0  0  0
    7.7331    2.1900    0.0000 H   0  0  0  0  0  0  0  0  0  0  0  0
    6.8671    0.6900    0.0000 H   0  0  0  0  0  0  0  0  0  0  0  0
    4.9272    2.1900    0.0000 H   0  0  0  0  0  0  0  0  0  0  0  0
    4.9272    0.8100    0.0000 H   0  0  0  0  0  0  0  0  0  0  0  0
    6.3301    4.6200    0.0000 H   0  0  0  0  0  0  0  0  0  0  0  0
    4.9272    3.8100    0.0000 H   0  0  0  0  0  0  0  0  0  0  0  0
    8.3722    3.4631    0.0000 H   0  0  0  0  0  0  0  0  0  0  0  0
    8.5991    4.3100    0.0000 H   0  0  0  0  0  0  0  0  0  0  0  0
    7.7522    4.5369    0.0000 H   0  0  0  0  0  0  0  0  0  0  0  0
  1 14  2  0  0  0  0
  2  5  1  0  0  0  0
  2 14  1  0  0  0  0
  2 28  1  0  0  0  0
  3  4  1  0  0  0  0
  3  5  1  0  0  0  0
  3  6  2  0  0  0  0
  4  8  1  0  0  0  0
  4 21  1  0  0  0  0
  4 22  1  0  0  0  0
  5  7  2  0  0  0  0
  6  9  1  0  0  0  0
  6 23  1  0  0  0  0
  7 10  1  0  0  0  0
  7 24  1  0  0  0  0
  8 25  1  0  0  0  0
  8 26  1  0  0  0  0
  8 27  1  0  0  0  0
  9 10  2  0  0  0  0
  9 29  1  0  0  0  0
 10 30  1  0  0  0  0
 11 13  1  0  0  0  0
 11 15  1  0  0  0  0
 11 16  2  0  0  0  0
 12 13  2  0  0  0  0
 12 18  1  0  0  0  0
 12 20  1  0  0  0  0
 13 31  1  0  0  0  0
 14 17  1  0  0  0  0
 15 17  2  0  0  0  0
 15 32  1  0  0  0  0
 16 19  1  0  0  0  0
 16 33  1  0  0  0  0
 17 34  1  0  0  0  0
 18 19  2  0  0  0  0
 18 35  1  0  0  0  0
 19 36  1  0  0  0  0
 20 37  1  0  0  0  0
 20 38  1  0  0  0  0
 20 39  1  0  0  0  0
M  END
> <PUBCHEM_COMPOUND_CID>
26208663

> <PUBCHEM_COMPOUND_CANONICALIZED>
1

> <PUBCHEM_CACTVS_COMPLEXITY>
336

> <PUBCHEM_CACTVS_HBOND_ACCEPTOR>
1

> <PUBCHEM_CACTVS_HBOND_DONOR>
1

> <PUBCHEM_CACTVS_ROTATABLE_BOND>
4

> <PUBCHEM_CACTVS_SUBSKEYS>
AAADceB6IAAAAAAAAAAAAAAAAAAAAAAAAAAwYAAAAAAAAAABQAAAHgAQAAAADAiBmAAywILAAACIAiVSUACCAAAhAgAIiAAAZMgIICLAkZGEIAhglADIyYcQgMAOAAACAAACAAAAAAQAAAQAAAAAAAAAAA==

> <PUBCHEM_IUPAC_OPENEYE_NAME>
(E)-N-(2-ethylphenyl)-3-(m-tolyl)prop-2-enamide

> <PUBCHEM_IUPAC_CAS_NAME>
(E)-N-(2-ethylphenyl)-3-(3-methylphenyl)-2-propenamide

> <PUBCHEM_IUPAC_NAME>
(E)-N-(2-ethylphenyl)-3-(3-methylphenyl)prop-2-enamide

> <PUBCHEM_IUPAC_SYSTEMATIC_NAME>
(E)-N-(2-ethylphenyl)-3-(3-methylphenyl)prop-2-enamide

> <PUBCHEM_IUPAC_TRADITIONAL_NAME>
(E)-N-(2-ethylphenyl)-3-(m-tolyl)acrylamide

> <PUBCHEM_IUPAC_INCHI>
InChI=1S/C18H19NO/c1-3-16-9-4-5-10-17(16)19-18(20)12-11-15-8-6-7-14(2)13-15/h4-13H,3H2,1-2H3,(H,19,20)/b12-11+

> <PUBCHEM_IUPAC_INCHIKEY>
LLRGTQFVAUMNEE-VAWYXSNFSA-N

> <PUBCHEM_XLOGP3>
3.8

> <PUBCHEM_EXACT_MASS>
265.146664

> <PUBCHEM_MOLECULAR_FORMULA>
C18H19NO

> <PUBCHEM_MOLECULAR_WEIGHT>
265.34956

> <PUBCHEM_OPENEYE_CAN_SMILES>
CCC1=CC=CC=C1NC(=O)C=CC2=CC(=CC=C2)C

> <PUBCHEM_OPENEYE_ISO_SMILES>
CCC1=CC=CC=C1NC(=O)/C=C/C2=CC(=CC=C2)C

> <PUBCHEM_CACTVS_TPSA>
29.1

> <PUBCHEM_MONOISOTOPIC_WEIGHT>
265.146664

> <PUBCHEM_TOTAL_CHARGE>
0

> <PUBCHEM_HEAVY_ATOM_COUNT>
20

> <PUBCHEM_ATOM_DEF_STEREO_COUNT>
0

> <PUBCHEM_ATOM_UDEF_STEREO_COUNT>
0

> <PUBCHEM_BOND_DEF_STEREO_COUNT>
1

> <PUBCHEM_BOND_UDEF_STEREO_COUNT>
0

> <PUBCHEM_ISOTOPIC_ATOM_COUNT>
0

> <PUBCHEM_COMPONENT_COUNT>
1

> <PUBCHEM_CACTVS_TAUTO_COUNT>
2

> <PUBCHEM_COORDINATE_TYPE>
1
5
255

> <PUBCHEM_BONDANNOTATIONS>
11  13  8
11  16  8
12  13  8
12  18  8
16  19  8
18  19  8
3  5  8
3  6  8
5  7  8
6  9  8
7  10  8
9  10  8

$$$$
26210721
  -OEChem-12041211292D

 45 47  0     0  0  0  0  0  0999 V2000
    6.6353   -1.2366    0.0000 O   0  0  0  0  0  0  0  0  0  0  0  0
    6.2781    0.4582    0.0000 N   0  0  0  0  0  0  0  0  0  0  0  0
    4.6783   -3.2585    0.0000 N   0  0  0  0  0  0  0  0  0  0  0  0
    5.6103    1.2025    0.0000 C   0  0  0  0  0  0  0  0  0  0  0  0
    5.9209    2.1530    0.0000 C   0  0  0  0  0  0  0  0  0  0  0  0
    4.9889   -0.6985    0.0000 C   0  0  0  0  0  0  0  0  0  0  0  0
    4.6783   -1.6491    0.0000 C   0  0  0  0  0  0  0  0  0  0  0  0
    3.7320   -1.9538    0.0000 C   0  0  0  0  0  0  0  0  0  0  0  0
    5.9674   -0.4923    0.0000 C   0  0  0  0  0  0  0  0  0  0  0  0
    5.2531    2.8973    0.0000 C   0  0  0  0  0  0  0  0  0  0  0  0
    3.7320   -2.9538    0.0000 C   0  0  0  0  0  0  0  0  0  0  0  0
    7.2566    0.6644    0.0000 C   0  0  0  0  0  0  0  0  0  0  0  0
    5.2619   -2.4538    0.0000 C   0  0  0  0  0  0  0  0  0  0  0  0
    2.8660   -1.4538    0.0000 C   0  0  0  0  0  0  0  0  0  0  0  0
    2.8660   -3.4538    0.0000 C   0  0  0  0  0  0  0  0  0  0  0  0
    5.5637    3.8478    0.0000 C   0  0  0  0  0  0  0  0  0  0  0  0
    7.9244   -0.0799    0.0000 C   0  0  0  0  0  0  0  0  0  0  0  0
    7.5673    1.6149    0.0000 C   0  0  0  0  0  0  0  0  0  0  0  0
    2.0000   -1.9538    0.0000 C   0  0  0  0  0  0  0  0  0  0  0  0
    2.0000   -2.9538    0.0000 C   0  0  0  0  0  0  0  0  0  0  0  0
    8.9030    0.1263    0.0000 C   0  0  0  0  0  0  0  0  0  0  0  0
    8.5458    1.8212    0.0000 C   0  0  0  0  0  0  0  0  0  0  0  0
    9.2136    1.0769    0.0000 C   0  0  0  0  0  0  0  0  0  0  0  0
    5.0633    1.4945    0.0000 H   0  0  0  0  0  0  0  0  0  0  0  0
    5.2277    0.7146    0.0000 H   0  0  0  0  0  0  0  0  0  0  0  0
    6.4678    1.8610    0.0000 H   0  0  0  0  0  0  0  0  0  0  0  0
    6.3035    2.6409    0.0000 H   0  0  0  0  0  0  0  0  0  0  0  0
    4.9684   -0.0789    0.0000 H   0  0  0  0  0  0  0  0  0  0  0  0
    4.3751   -0.6112    0.0000 H   0  0  0  0  0  0  0  0  0  0  0  0
    4.7062    3.1893    0.0000 H   0  0  0  0  0  0  0  0  0  0  0  0
    4.8705    2.4094    0.0000 H   0  0  0  0  0  0  0  0  0  0  0  0
    5.8819   -2.4538    0.0000 H   0  0  0  0  0  0  0  0  0  0  0  0
    4.8709   -3.8478    0.0000 H   0  0  0  0  0  0  0  0  0  0  0  0
    2.8660   -0.8338    0.0000 H   0  0  0  0  0  0  0  0  0  0  0  0
    2.8660   -4.0738    0.0000 H   0  0  0  0  0  0  0  0  0  0  0  0
    6.1531    3.6552    0.0000 H   0  0  0  0  0  0  0  0  0  0  0  0
    5.7564    4.4372    0.0000 H   0  0  0  0  0  0  0  0  0  0  0  0
    4.9744    4.0405    0.0000 H   0  0  0  0  0  0  0  0  0  0  0  0
    7.7318   -0.6692    0.0000 H   0  0  0  0  0  0  0  0  0  0  0  0
    7.1532    2.0764    0.0000 H   0  0  0  0  0  0  0  0  0  0  0  0
    1.4631   -1.6438    0.0000 H   0  0  0  0  0  0  0  0  0  0  0  0
    1.4631   -3.2638    0.0000 H   0  0  0  0  0  0  0  0  0  0  0  0
    9.3170   -0.3351    0.0000 H   0  0  0  0  0  0  0  0  0  0  0  0
    8.7384    2.4105    0.0000 H   0  0  0  0  0  0  0  0  0  0  0  0
    9.8203    1.2047    0.0000 H   0  0  0  0  0  0  0  0  0  0  0  0
  1  9  2  0  0  0  0
  2  4  1  0  0  0  0
  2  9  1  0  0  0  0
  2 12  1  0  0  0  0
  3 11  1  0  0  0  0
  3 13  1  0  0  0  0
  3 33  1  0  0  0  0
  4  5  1  0  0  0  0
  4 24  1  0  0  0  0
  4 25  1  0  0  0  0
  5 10  1  0  0  0  0
  5 26  1  0  0  0  0
  5 27  1  0  0  0  0
  6  7  1  0  0  0  0
  6  9  1  0  0  0  0
  6 28  1  0  0  0  0
  6 29  1  0  0  0  0
  7  8  1  0  0  0  0
  7 13  2  0  0  0  0
  8 11  1  0  0  0  0
  8 14  2  0  0  0  0
 10 16  1  0  0  0  0
 10 30  1  0  0  0  0
 10 31  1  0  0  0  0
 11 15  2  0  0  0  0
 12 17  2  0  0  0  0
 12 18  1  0  0  0  0
 13 32  1  0  0  0  0
 14 19  1  0  0  0  0
 14 34  1  0  0  0  0
 15 20  1  0  0  0  0
 15 35  1  0  0  0  0
 16 36  1  0  0  0  0
 16 37  1  0  0  0  0
 16 38  1  0  0  0  0
 17 21  1  0  0  0  0
 17 39  1  0  0  0  0
 18 22  2  0  0  0  0
 18 40  1  0  0  0  0
 19 20  2  0  0  0  0
 19 41  1  0  0  0  0
 20 42  1  0  0  0  0
 21 23  2  0  0  0  0
 21 43  1  0  0  0  0
 22 23  1  0  0  0  0
 22 44  1  0  0  0  0
 23 45  1  0  0  0  0
M  END
> <PUBCHEM_COMPOUND_CID>
26210721

> <PUBCHEM_COMPOUND_CANONICALIZED>
1

> <PUBCHEM_CACTVS_COMPLEXITY>
378

> <PUBCHEM_CACTVS_HBOND_ACCEPTOR>
1

> <PUBCHEM_CACTVS_HBOND_DONOR>
1

> <PUBCHEM_CACTVS_ROTATABLE_BOND>
6

> <PUBCHEM_CACTVS_SUBSKEYS>
AAADceB7IAAAAAAAAAAAAAAAAAAAAWAAAAAwYAAAAAAAAFgB9AAAHgAQAAAADAjBngQ+wPPJkACoAzV3VACCgCAxAiAI2aE4ZJgIIPLAlZGEIAhglgDIyAccicCegAAAAAACAAAAAAAAAAQAAAAAAAAAAA==

> <PUBCHEM_IUPAC_OPENEYE_NAME>
N-butyl-2-(1H-indol-3-yl)-N-phenyl-acetamide

> <PUBCHEM_IUPAC_CAS_NAME>
N-butyl-2-(1H-indol-3-yl)-N-phenylacetamide

> <PUBCHEM_IUPAC_NAME>
N-butyl-2-(1H-indol-3-yl)-N-phenylacetamide

> <PUBCHEM_IUPAC_SYSTEMATIC_NAME>
N-butyl-2-(1H-indol-3-yl)-N-phenyl-ethanamide

> <PUBCHEM_IUPAC_TRADITIONAL_NAME>
N-butyl-2-(1H-indol-3-yl)-N-phenyl-acetamide

> <PUBCHEM_IUPAC_INCHI>
InChI=1S/C20H22N2O/c1-2-3-13-22(17-9-5-4-6-10-17)20(23)14-16-15-21-19-12-8-7-11-18(16)19/h4-12,15,21H,2-3,13-14H2,1H3

> <PUBCHEM_IUPAC_INCHIKEY>
LHWQJBYWGHGFTI-UHFFFAOYSA-N

> <PUBCHEM_XLOGP3>
4.2

> <PUBCHEM_EXACT_MASS>
306.173213

> <PUBCHEM_MOLECULAR_FORMULA>
C20H22N2O

> <PUBCHEM_MOLECULAR_WEIGHT>
306.40148

> <PUBCHEM_OPENEYE_CAN_SMILES>
CCCCN(C1=CC=CC=C1)C(=O)CC2=CNC3=CC=CC=C32

> <PUBCHEM_OPENEYE_ISO_SMILES>
CCCCN(C1=CC=CC=C1)C(=O)CC2=CNC3=CC=CC=C32

> <PUBCHEM_CACTVS_TPSA>
36.1

> <PUBCHEM_MONOISOTOPIC_WEIGHT>
306.173213

> <PUBCHEM_TOTAL_CHARGE>
0

> <PUBCHEM_HEAVY_ATOM_COUNT>
23

> <PUBCHEM_ATOM_DEF_STEREO_COUNT>
0

> <PUBCHEM_ATOM_UDEF_STEREO_COUNT>
0

> <PUBCHEM_BOND_DEF_STEREO_COUNT>
0

> <PUBCHEM_BOND_UDEF_STEREO_COUNT>
0

> <PUBCHEM_ISOTOPIC_ATOM_COUNT>
0

> <PUBCHEM_COMPONENT_COUNT>
1

> <PUBCHEM_CACTVS_TAUTO_COUNT>
1

> <PUBCHEM_COORDINATE_TYPE>
1
5
255

> <PUBCHEM_BONDANNOTATIONS>
11  15  8
12  17  8
12  18  8
14  19  8
15  20  8
17  21  8
18  22  8
19  20  8
21  23  8
22  23  8
3  11  8
3  13  8
7  13  8
7  8  8
8  11  8
8  14  8

$$$$
26218634
  -OEChem-12041211292D

 36 38  0     0  0  0  0  0  0999 V2000
    6.5422    3.9510    0.0000 I   0  0  0  0  0  0  0  0  0  0  0  0
    7.9245   -0.1830    0.0000 O   0  0  0  0  0  0  0  0  0  0  0  0
    4.6783   -3.3616    0.0000 N   0  0  0  0  0  0  0  0  0  0  0  0
    6.2781    0.3551    0.0000 N   0  0  0  0  0  0  0  0  0  0  0  0
    4.6783   -1.7522    0.0000 C   0  0  0  0  0  0  0  0  0  0  0  0
    4.9889   -0.8016    0.0000 C   0  0  0  0  0  0  0  0  0  0  0  0
    3.7321   -2.0569    0.0000 C   0  0  0  0  0  0  0  0  0  0  0  0
    3.7321   -3.0569    0.0000 C   0  0  0  0  0  0  0  0  0  0  0  0
    5.9674   -0.5954    0.0000 C   0  0  0  0  0  0  0  0  0  0  0  0
    5.2619   -2.5569    0.0000 C   0  0  0  0  0  0  0  0  0  0  0  0
    2.8660   -1.5569    0.0000 C   0  0  0  0  0  0  0  0  0  0  0  0
    2.8660   -3.5569    0.0000 C   0  0  0  0  0  0  0  0  0  0  0  0
    2.0000   -2.0569    0.0000 C   0  0  0  0  0  0  0  0  0  0  0  0
    2.0000   -3.0569    0.0000 C   0  0  0  0  0  0  0  0  0  0  0  0
    7.2566    0.5613    0.0000 C   0  0  0  0  0  0  0  0  0  0  0  0
    7.5673    1.5118    0.0000 C   0  0  0  0  0  0  0  0  0  0  0  0
    6.8994    2.2561    0.0000 C   0  0  0  0  0  0  0  0  0  0  0  0
    8.5458    1.7181    0.0000 C   0  0  0  0  0  0  0  0  0  0  0  0
    7.2101    3.2066    0.0000 C   0  0  0  0  0  0  0  0  0  0  0  0
    8.8564    2.6686    0.0000 C   0  0  0  0  0  0  0  0  0  0  0  0
    8.1886    3.4129    0.0000 C   0  0  0  0  0  0  0  0  0  0  0  0
    4.9684   -0.1820    0.0000 H   0  0  0  0  0  0  0  0  0  0  0  0
    4.3751   -0.7143    0.0000 H   0  0  0  0  0  0  0  0  0  0  0  0
    5.9880   -1.2151    0.0000 H   0  0  0  0  0  0  0  0  0  0  0  0
    6.5813   -0.6828    0.0000 H   0  0  0  0  0  0  0  0  0  0  0  0
    5.8819   -2.5569    0.0000 H   0  0  0  0  0  0  0  0  0  0  0  0
    4.8709   -3.9510    0.0000 H   0  0  0  0  0  0  0  0  0  0  0  0
    2.8660   -0.9369    0.0000 H   0  0  0  0  0  0  0  0  0  0  0  0
    2.8660   -4.1769    0.0000 H   0  0  0  0  0  0  0  0  0  0  0  0
    5.8640    0.8166    0.0000 H   0  0  0  0  0  0  0  0  0  0  0  0
    1.4631   -1.7469    0.0000 H   0  0  0  0  0  0  0  0  0  0  0  0
    1.4631   -3.3669    0.0000 H   0  0  0  0  0  0  0  0  0  0  0  0
    6.2928    2.1283    0.0000 H   0  0  0  0  0  0  0  0  0  0  0  0
    8.9598    1.2566    0.0000 H   0  0  0  0  0  0  0  0  0  0  0  0
    9.4631    2.7964    0.0000 H   0  0  0  0  0  0  0  0  0  0  0  0
    8.3812    4.0022    0.0000 H   0  0  0  0  0  0  0  0  0  0  0  0
  1 19  1  0  0  0  0
  2 15  2  0  0  0  0
  3  8  1  0  0  0  0
  3 10  1  0  0  0  0
  3 27  1  0  0  0  0
  4  9  1  0  0  0  0
  4 15  1  0  0  0  0
  4 30  1  0  0  0  0
  5  6  1  0  0  0  0
  5  7  1  0  0  0  0
  5 10  2  0  0  0  0
  6  9  1  0  0  0  0
  6 22  1  0  0  0  0
  6 23  1  0  0  0  0
  7  8  1  0  0  0  0
  7 11  2  0  0  0  0
  8 12  2  0  0  0  0
  9 24  1  0  0  0  0
  9 25  1  0  0  0  0
 10 26  1  0  0  0  0
 11 13  1  0  0  0  0
 11 28  1  0  0  0  0
 12 14  1  0  0  0  0
 12 29  1  0  0  0  0
 13 14  2  0  0  0  0
 13 31  1  0  0  0  0
 14 32  1  0  0  0  0
 15 16  1  0  0  0  0
 16 17  2  0  0  0  0
 16 18  1  0  0  0  0
 17 19  1  0  0  0  0
 17 33  1  0  0  0  0
 18 20  2  0  0  0  0
 18 34  1  0  0  0  0
 19 21  2  0  0  0  0
 20 21  1  0  0  0  0
 20 35  1  0  0  0  0
 21 36  1  0  0  0  0
M  END
> <PUBCHEM_COMPOUND_CID>
26218634

> <PUBCHEM_COMPOUND_CANONICALIZED>
1

> <PUBCHEM_CACTVS_COMPLEXITY>
363

> <PUBCHEM_CACTVS_HBOND_ACCEPTOR>
1

> <PUBCHEM_CACTVS_HBOND_DONOR>
2

> <PUBCHEM_CACTVS_ROTATABLE_BOND>
4

> <PUBCHEM_CACTVS_SUBSKEYS>
AAADccB7IAAAAgAAAAAAAAAAAAAAAWAAAAAwYAAAAAAAAFgB9AAAHgAwAAAADAjDngQ8wPLJkACoAzV3VACCgCA1AiAI2aE4ZNgIIPLAlZGEIQhglgDIyYcYiMCOgAAAAAACAAAAAAAAAAQAAAAAAAAAAA==

> <PUBCHEM_IUPAC_OPENEYE_NAME>
N-[2-(1H-indol-3-yl)ethyl]-3-iodo-benzamide

> <PUBCHEM_IUPAC_CAS_NAME>
N-[2-(1H-indol-3-yl)ethyl]-3-iodobenzamide

> <PUBCHEM_IUPAC_NAME>
N-[2-(1H-indol-3-yl)ethyl]-3-iodobenzamide

> <PUBCHEM_IUPAC_SYSTEMATIC_NAME>
N-[2-(1H-indol-3-yl)ethyl]-3-iodanyl-benzamide

> <PUBCHEM_IUPAC_TRADITIONAL_NAME>
N-[2-(1H-indol-3-yl)ethyl]-3-iodo-benzamide

> <PUBCHEM_IUPAC_INCHI>
InChI=1S/C17H15IN2O/c18-14-5-3-4-12(10-14)17(21)19-9-8-13-11-20-16-7-2-1-6-15(13)16/h1-7,10-11,20H,8-9H2,(H,19,21)

> <PUBCHEM_IUPAC_INCHIKEY>
NCOAVLLHHIZRGE-UHFFFAOYSA-N

> <PUBCHEM_XLOGP3>
4.1

> <PUBCHEM_EXACT_MASS>
390.022911

> <PUBCHEM_MOLECULAR_FORMULA>
C17H15IN2O

> <PUBCHEM_MOLECULAR_WEIGHT>
390.21827

> <PUBCHEM_OPENEYE_CAN_SMILES>
C1=CC=C2C(=C1)C(=CN2)CCNC(=O)C3=CC(=CC=C3)I

> <PUBCHEM_OPENEYE_ISO_SMILES>
C1=CC=C2C(=C1)C(=CN2)CCNC(=O)C3=CC(=CC=C3)I

> <PUBCHEM_CACTVS_TPSA>
44.9

> <PUBCHEM_MONOISOTOPIC_WEIGHT>
390.022911

> <PUBCHEM_TOTAL_CHARGE>
0

> <PUBCHEM_HEAVY_ATOM_COUNT>
21

> <PUBCHEM_ATOM_DEF_STEREO_COUNT>
0

> <PUBCHEM_ATOM_UDEF_STEREO_COUNT>
0

> <PUBCHEM_BOND_DEF_STEREO_COUNT>
0

> <PUBCHEM_BOND_UDEF_STEREO_COUNT>
0

> <PUBCHEM_ISOTOPIC_ATOM_COUNT>
0

> <PUBCHEM_COMPONENT_COUNT>
1

> <PUBCHEM_CACTVS_TAUTO_COUNT>
2

> <PUBCHEM_COORDINATE_TYPE>
1
5
255

> <PUBCHEM_BONDANNOTATIONS>
11  13  8
12  14  8
13  14  8
16  17  8
16  18  8
17  19  8
18  20  8
19  21  8
20  21  8
3  10  8
3  8  8
5  10  8
5  7  8
7  11  8
7  8  8
8  12  8

$$$$
