26600785
  -OEChem-12131207262D

 30 31  0     0  0  0  0  0  0999 V2000
    2.8660   -0.3100    0.0000 N   0  0  0  0  0  0  0  0  0  0  0  0
    2.8660    2.6900    0.0000 N   0  3  0  0  0  0  0  0  0  0  0  0
    2.8660    1.6900    0.0000 C   0  0  0  0  0  0  0  0  0  0  0  0
    2.0000    1.1900    0.0000 C   0  0  0  0  0  0  0  0  0  0  0  0
    3.7320    1.1900    0.0000 C   0  0  0  0  0  0  0  0  0  0  0  0
    2.0000    0.1900    0.0000 C   0  0  0  0  0  0  0  0  0  0  0  0
    3.7320    0.1900    0.0000 C   0  0  0  0  0  0  0  0  0  0  0  0
    2.8660   -1.3100    0.0000 C   0  0  0  0  0  0  0  0  0  0  0  0
    2.0000   -1.8100    0.0000 C   0  0  0  0  0  0  0  0  0  0  0  0
    3.7320   -1.8100    0.0000 C   0  0  0  0  0  0  0  0  0  0  0  0
    2.0000   -2.8100    0.0000 C   0  0  0  0  0  0  0  0  0  0  0  0
    3.7320   -2.8100    0.0000 C   0  0  0  0  0  0  0  0  0  0  0  0
    2.8660   -3.3100    0.0000 C   0  0  0  0  0  0  0  0  0  0  0  0
    3.4030    2.0000    0.0000 H   0  0  0  0  0  0  0  0  0  0  0  0
    1.7880    1.7726    0.0000 H   0  0  0  0  0  0  0  0  0  0  0  0
    1.3894    1.0823    0.0000 H   0  0  0  0  0  0  0  0  0  0  0  0
    4.3426    1.0823    0.0000 H   0  0  0  0  0  0  0  0  0  0  0  0
    3.9441    1.7726    0.0000 H   0  0  0  0  0  0  0  0  0  0  0  0
    1.3894    0.2977    0.0000 H   0  0  0  0  0  0  0  0  0  0  0  0
    1.7880   -0.3926    0.0000 H   0  0  0  0  0  0  0  0  0  0  0  0
    3.9441   -0.3926    0.0000 H   0  0  0  0  0  0  0  0  0  0  0  0
    4.3426    0.2977    0.0000 H   0  0  0  0  0  0  0  0  0  0  0  0
    2.8660    3.3100    0.0000 H   0  0  0  0  0  0  0  0  0  0  0  0
    3.4860    2.6900    0.0000 H   0  0  0  0  0  0  0  0  0  0  0  0
    2.2460    2.6900    0.0000 H   0  0  0  0  0  0  0  0  0  0  0  0
    1.4631   -1.5000    0.0000 H   0  0  0  0  0  0  0  0  0  0  0  0
    4.2690   -1.5000    0.0000 H   0  0  0  0  0  0  0  0  0  0  0  0
    1.4631   -3.1200    0.0000 H   0  0  0  0  0  0  0  0  0  0  0  0
    4.2690   -3.1200    0.0000 H   0  0  0  0  0  0  0  0  0  0  0  0
    2.8660   -3.9300    0.0000 H   0  0  0  0  0  0  0  0  0  0  0  0
  1  6  1  0  0  0  0
  1  7  1  0  0  0  0
  1  8  1  0  0  0  0
  2  3  1  0  0  0  0
  2 23  1  0  0  0  0
  2 24  1  0  0  0  0
  2 25  1  0  0  0  0
  3  4  1  0  0  0  0
  3  5  1  0  0  0  0
  3 14  1  0  0  0  0
  4  6  1  0  0  0  0
  4 15  1  0  0  0  0
  4 16  1  0  0  0  0
  5  7  1  0  0  0  0
  5 17  1  0  0  0  0
  5 18  1  0  0  0  0
  6 19  1  0  0  0  0
  6 20  1  0  0  0  0
  7 21  1  0  0  0  0
  7 22  1  0  0  0  0
  8  9  2  0  0  0  0
  8 10  1  0  0  0  0
  9 11  1  0  0  0  0
  9 26  1  0  0  0  0
 10 12  2  0  0  0  0
 10 27  1  0  0  0  0
 11 13  2  0  0  0  0
 11 28  1  0  0  0  0
 12 13  1  0  0  0  0
 12 29  1  0  0  0  0
 13 30  1  0  0  0  0
M  CHG  1   2   1
M  END
> <PUBCHEM_COMPOUND_CID>
26600785

> <PUBCHEM_COMPOUND_CANONICALIZED>
1

> <PUBCHEM_CACTVS_COMPLEXITY>
144

> <PUBCHEM_CACTVS_HBOND_ACCEPTOR>
1

> <PUBCHEM_CACTVS_HBOND_DONOR>
1

> <PUBCHEM_CACTVS_ROTATABLE_BOND>
1

> <PUBCHEM_CACTVS_SUBSKEYS>
AAADceBzAAAAAAAAAAAAAAAAAAAAAAAAAAA8QAAAAAAAAAABAAAAHAAQAAAACCjBEAQwwINAAACAACRCQACCAAAhAgAIiIAIZIgIICLA0ZGEIAhgkADIyAcQAAAAAAAAAAAAAAAAAAAAAAAAAAAAAAAAAA==

> <PUBCHEM_IUPAC_OPENEYE_NAME>
(1-phenyl-4-piperidyl)ammonium

> <PUBCHEM_IUPAC_CAS_NAME>
(1-phenyl-4-piperidinyl)ammonium

> <PUBCHEM_IUPAC_NAME>
(1-phenylpiperidin-4-yl)azanium

> <PUBCHEM_IUPAC_SYSTEMATIC_NAME>
(1-phenylpiperidin-4-yl)azanium

> <PUBCHEM_IUPAC_TRADITIONAL_NAME>
(1-phenyl-4-piperidyl)ammonium

> <PUBCHEM_IUPAC_INCHI>
InChI=1S/C11H16N2/c12-10-6-8-13(9-7-10)11-4-2-1-3-5-11/h1-5,10H,6-9,12H2/p+1

> <PUBCHEM_IUPAC_INCHIKEY>
QFJSOVLHTDPFAB-UHFFFAOYSA-O

> <PUBCHEM_XLOGP3>
2.7

> <PUBCHEM_EXACT_MASS>
177.139174

> <PUBCHEM_MOLECULAR_FORMULA>
C11H17N2+

> <PUBCHEM_MOLECULAR_WEIGHT>
177.26608

> <PUBCHEM_OPENEYE_CAN_SMILES>
C1CN(CCC1[NH3+])C2=CC=CC=C2

> <PUBCHEM_OPENEYE_ISO_SMILES>
C1CN(CCC1[NH3+])C2=CC=CC=C2

> <PUBCHEM_CACTVS_TPSA>
30.9

> <PUBCHEM_MONOISOTOPIC_WEIGHT>
177.139174

> <PUBCHEM_TOTAL_CHARGE>
1

> <PUBCHEM_HEAVY_ATOM_COUNT>
13

> <PUBCHEM_ATOM_DEF_STEREO_COUNT>
0

> <PUBCHEM_ATOM_UDEF_STEREO_COUNT>
0

> <PUBCHEM_BOND_DEF_STEREO_COUNT>
0

> <PUBCHEM_BOND_UDEF_STEREO_COUNT>
0

> <PUBCHEM_ISOTOPIC_ATOM_COUNT>
0

> <PUBCHEM_COMPONENT_COUNT>
1

> <PUBCHEM_CACTVS_TAUTO_COUNT>
1

> <PUBCHEM_COORDINATE_TYPE>
1
5
255

> <PUBCHEM_BONDANNOTATIONS>
10  12  8
11  13  8
12  13  8
8  10  8
8  9  8
9  11  8

$$$$
