30842098
  -OEChem-12041211422D

 41 43  0     0  0  0  0  0  0999 V2000
    3.9538    0.4293    0.0000 S   0  0  0  0  0  0  0  0  0  0  0  0
    2.2788    2.5171    0.0000 S   0  0  0  0  0  0  0  0  0  0  0  0
   10.8820   -4.5707    0.0000 S   0  0  0  0  0  0  0  0  0  0  0  0
    4.4538    1.2953    0.0000 O   0  0  0  0  0  0  0  0  0  0  0  0
    3.4538   -0.4367    0.0000 O   0  0  0  0  0  0  0  0  0  0  0  0
    7.4179   -4.5707    0.0000 O   0  0  0  0  0  0  0  0  0  0  0  0
    9.1500   -1.5707    0.0000 O   0  0  0  0  0  0  0  0  0  0  0  0
    7.4179   -1.5707    0.0000 N   0  0  0  0  0  0  0  0  0  0  0  0
    3.0878    0.9293    0.0000 N   0  5  0  0  0  0  0  0  0  0  0  0
    9.1500   -4.5707    0.0000 N   0  0  0  0  0  0  0  0  0  0  0  0
   10.0160   -3.0707    0.0000 N   0  0  0  0  0  0  0  0  0  0  0  0
    3.5878    3.4681    0.0000 N   0  0  0  0  0  0  0  0  0  0  0  0
    3.8968    2.5171    0.0000 N   0  0  0  0  0  0  0  0  0  0  0  0
    4.8198   -0.0707    0.0000 C   0  0  0  0  0  0  0  0  0  0  0  0
    6.5519   -1.0707    0.0000 C   0  0  0  0  0  0  0  0  0  0  0  0
    4.8198   -1.0707    0.0000 C   0  0  0  0  0  0  0  0  0  0  0  0
    5.6859    0.4293    0.0000 C   0  0  0  0  0  0  0  0  0  0  0  0
    5.6859   -1.5707    0.0000 C   0  0  0  0  0  0  0  0  0  0  0  0
    6.5519   -0.0707    0.0000 C   0  0  0  0  0  0  0  0  0  0  0  0
    8.2839   -3.0707    0.0000 C   0  0  0  0  0  0  0  0  0  0  0  0
    7.4179   -2.5707    0.0000 C   0  0  0  0  0  0  0  0  0  0  0  0
    2.0000    4.2772    0.0000 C   0  0  0  0  0  0  0  0  0  0  0  0
    2.5878    3.4681    0.0000 C   0  0  0  0  0  0  0  0  0  0  0  0
    3.0878    1.9293    0.0000 C   0  0  0  0  0  0  0  0  0  0  0  0
    9.1500   -2.5707    0.0000 C   0  0  0  0  0  0  0  0  0  0  0  0
    8.2839   -4.0707    0.0000 C   0  0  0  0  0  0  0  0  0  0  0  0
    2.4067    5.1907    0.0000 C   0  0  0  0  0  0  0  0  0  0  0  0
   10.0160   -4.0707    0.0000 C   0  0  0  0  0  0  0  0  0  0  0  0
    4.2829   -1.3807    0.0000 H   0  0  0  0  0  0  0  0  0  0  0  0
    5.6859    1.0493    0.0000 H   0  0  0  0  0  0  0  0  0  0  0  0
    5.6859   -2.1907    0.0000 H   0  0  0  0  0  0  0  0  0  0  0  0
    7.0888    0.2393    0.0000 H   0  0  0  0  0  0  0  0  0  0  0  0
    7.9548   -1.2607    0.0000 H   0  0  0  0  0  0  0  0  0  0  0  0
    6.8810   -2.8807    0.0000 H   0  0  0  0  0  0  0  0  0  0  0  0
    1.4860    4.6239    0.0000 H   0  0  0  0  0  0  0  0  0  0  0  0
    1.5693    3.8312    0.0000 H   0  0  0  0  0  0  0  0  0  0  0  0
   10.5529   -2.7607    0.0000 H   0  0  0  0  0  0  0  0  0  0  0  0
    9.1500   -5.1907    0.0000 H   0  0  0  0  0  0  0  0  0  0  0  0
    2.9731    4.9385    0.0000 H   0  0  0  0  0  0  0  0  0  0  0  0
    2.6589    5.7571    0.0000 H   0  0  0  0  0  0  0  0  0  0  0  0
    1.8403    5.4429    0.0000 H   0  0  0  0  0  0  0  0  0  0  0  0
  1  4  2  0  0  0  0
  1  5  2  0  0  0  0
  1  9  1  0  0  0  0
  1 14  1  0  0  0  0
  2 23  1  0  0  0  0
  2 24  1  0  0  0  0
  3 28  2  0  0  0  0
  6 26  2  0  0  0  0
  7 25  2  0  0  0  0
  8 15  1  0  0  0  0
  8 21  1  0  0  0  0
  8 33  1  0  0  0  0
  9 24  1  0  0  0  0
 10 26  1  0  0  0  0
 10 28  1  0  0  0  0
 10 38  1  0  0  0  0
 11 25  1  0  0  0  0
 11 28  1  0  0  0  0
 11 37  1  0  0  0  0
 12 13  1  0  0  0  0
 12 23  2  0  0  0  0
 13 24  2  0  0  0  0
 14 16  2  0  0  0  0
 14 17  1  0  0  0  0
 15 18  2  0  0  0  0
 15 19  1  0  0  0  0
 16 18  1  0  0  0  0
 16 29  1  0  0  0  0
 17 19  2  0  0  0  0
 17 30  1  0  0  0  0
 18 31  1  0  0  0  0
 19 32  1  0  0  0  0
 20 21  2  0  0  0  0
 20 25  1  0  0  0  0
 20 26  1  0  0  0  0
 21 34  1  0  0  0  0
 22 23  1  0  0  0  0
 22 27  1  0  0  0  0
 22 35  1  0  0  0  0
 22 36  1  0  0  0  0
 27 39  1  0  0  0  0
 27 40  1  0  0  0  0
 27 41  1  0  0  0  0
M  CHG  1   9  -1
M  END
> <PUBCHEM_COMPOUND_CID>
30842098

> <PUBCHEM_COMPOUND_CANONICALIZED>
1

> <PUBCHEM_CACTVS_COMPLEXITY>
751

> <PUBCHEM_CACTVS_HBOND_ACCEPTOR>
10

> <PUBCHEM_CACTVS_HBOND_DONOR>
3

> <PUBCHEM_CACTVS_ROTATABLE_BOND>
6

> <PUBCHEM_CACTVS_SUBSKEYS>
AAADccBzuABgAAAAAAAAAAAAAAAAAWAAAAA8QAAAAAAAAAABwAAAHgQYQAAADAjB0gQz0YLAAAquAiV2cHDSAJJhAhkciJk4ZMiIICro0ZGEIAhomQJIyMcQAAAAAAQAAAAAAAAACAAAAAAAAAAAAAAAAA==

> <PUBCHEM_IUPAC_OPENEYE_NAME>
[4-[(4,6-dioxo-2-thioxo-hexahydropyrimidin-5-ylidene)methylamino]phenyl]sulfonyl-(5-ethyl-1,3,4-thiadiazol-2-yl)azanide

> <PUBCHEM_IUPAC_CAS_NAME>
[4-[(4,6-dioxo-2-sulfanylidene-1,3-diazinan-5-ylidene)methylamino]phenyl]sulfonyl-(5-ethyl-1,3,4-thiadiazol-2-yl)azanide

> <PUBCHEM_IUPAC_NAME>
[4-[(4,6-dioxo-2-sulfanylidene-1,3-diazinan-5-ylidene)methylamino]phenyl]sulfonyl-(5-ethyl-1,3,4-thiadiazol-2-yl)azanide

> <PUBCHEM_IUPAC_SYSTEMATIC_NAME>
[4-[[4,6-bis(oxidanylidene)-2-sulfanylidene-1,3-diazinan-5-ylidene]methylamino]phenyl]sulfonyl-(5-ethyl-1,3,4-thiadiazol-2-yl)azanide

> <PUBCHEM_IUPAC_TRADITIONAL_NAME>
[4-[(4,6-diketo-2-thioxo-hexahydropyrimidin-5-ylidene)methylamino]phenyl]sulfonyl-(5-ethyl-1,3,4-thiadiazol-2-yl)azanide

> <PUBCHEM_IUPAC_INCHI>
InChI=1S/C15H14N6O4S3/c1-2-11-19-20-15(27-11)21-28(24,25)9-5-3-8(4-6-9)16-7-10-12(22)17-14(26)18-13(10)23/h3-7H,2H2,1H3,(H4,16,17,18,20,21,22,23,26)/p-1

> <PUBCHEM_IUPAC_INCHIKEY>
QGVGGARRDLVDMU-UHFFFAOYSA-M

> <PUBCHEM_XLOGP3>
1

> <PUBCHEM_EXACT_MASS>
437.016041

> <PUBCHEM_MOLECULAR_FORMULA>
C15H13N6O4S3-

> <PUBCHEM_MOLECULAR_WEIGHT>
437.49652

> <PUBCHEM_OPENEYE_CAN_SMILES>
CCC1=NN=C(S1)[N-]S(=O)(=O)C2=CC=C(C=C2)NC=C3C(=O)NC(=S)NC3=O

> <PUBCHEM_OPENEYE_ISO_SMILES>
CCC1=NN=C(S1)[N-]S(=O)(=O)C2=CC=C(C=C2)NC=C3C(=O)NC(=S)NC3=O

> <PUBCHEM_CACTVS_TPSA>
200

> <PUBCHEM_MONOISOTOPIC_WEIGHT>
437.016041

> <PUBCHEM_TOTAL_CHARGE>
-1

> <PUBCHEM_HEAVY_ATOM_COUNT>
28

> <PUBCHEM_ATOM_DEF_STEREO_COUNT>
0

> <PUBCHEM_ATOM_UDEF_STEREO_COUNT>
0

> <PUBCHEM_BOND_DEF_STEREO_COUNT>
0

> <PUBCHEM_BOND_UDEF_STEREO_COUNT>
0

> <PUBCHEM_ISOTOPIC_ATOM_COUNT>
0

> <PUBCHEM_COMPONENT_COUNT>
1

> <PUBCHEM_CACTVS_TAUTO_COUNT>
15

> <PUBCHEM_COORDINATE_TYPE>
1
5
255

> <PUBCHEM_BONDANNOTATIONS>
12  13  8
12  23  8
13  24  8
14  16  8
14  17  8
15  18  8
15  19  8
16  18  8
17  19  8
2  23  8
2  24  8

$$$$
30842099
  -OEChem-12041211422D

 42 44  0     0  0  0  0  0  0999 V2000
    3.9538    0.4293    0.0000 S   0  0  0  0  0  0  0  0  0  0  0  0
    2.2788    2.5171    0.0000 S   0  0  0  0  0  0  0  0  0  0  0  0
   10.8820   -4.5707    0.0000 S   0  0  0  0  0  0  0  0  0  0  0  0
    4.4538    1.2953    0.0000 O   0  0  0  0  0  0  0  0  0  0  0  0
    3.4538   -0.4367    0.0000 O   0  0  0  0  0  0  0  0  0  0  0  0
    7.4179   -4.5707    0.0000 O   0  0  0  0  0  0  0  0  0  0  0  0
    9.1500   -1.5707    0.0000 O   0  0  0  0  0  0  0  0  0  0  0  0
    3.0878    0.9293    0.0000 N   0  0  0  0  0  0  0  0  0  0  0  0
    7.4179   -1.5707    0.0000 N   0  0  0  0  0  0  0  0  0  0  0  0
    3.8968    2.5171    0.0000 N   0  0  0  0  0  0  0  0  0  0  0  0
    3.5878    3.4681    0.0000 N   0  0  0  0  0  0  0  0  0  0  0  0
    9.1500   -4.5707    0.0000 N   0  0  0  0  0  0  0  0  0  0  0  0
   10.0160   -3.0707    0.0000 N   0  0  0  0  0  0  0  0  0  0  0  0
    4.8198   -0.0707    0.0000 C   0  0  0  0  0  0  0  0  0  0  0  0
    6.5519   -1.0707    0.0000 C   0  0  0  0  0  0  0  0  0  0  0  0
    4.8198   -1.0707    0.0000 C   0  0  0  0  0  0  0  0  0  0  0  0
    5.6859    0.4293    0.0000 C   0  0  0  0  0  0  0  0  0  0  0  0
    5.6859   -1.5707    0.0000 C   0  0  0  0  0  0  0  0  0  0  0  0
    6.5519   -0.0707    0.0000 C   0  0  0  0  0  0  0  0  0  0  0  0
    3.0878    1.9293    0.0000 C   0  0  0  0  0  0  0  0  0  0  0  0
    7.4179   -2.5707    0.0000 C   0  0  0  0  0  0  0  0  0  0  0  0
    8.2839   -3.0707    0.0000 C   0  0  0  0  0  0  0  0  0  0  0  0
    2.0000    4.2772    0.0000 C   0  0  0  0  0  0  0  0  0  0  0  0
    2.5878    3.4681    0.0000 C   0  0  0  0  0  0  0  0  0  0  0  0
    8.2839   -4.0707    0.0000 C   0  0  0  0  0  0  0  0  0  0  0  0
    9.1500   -2.5707    0.0000 C   0  0  0  0  0  0  0  0  0  0  0  0
    2.4067    5.1907    0.0000 C   0  0  0  0  0  0  0  0  0  0  0  0
   10.0160   -4.0707    0.0000 C   0  0  0  0  0  0  0  0  0  0  0  0
    4.2829   -1.3807    0.0000 H   0  0  0  0  0  0  0  0  0  0  0  0
    5.6859    1.0493    0.0000 H   0  0  0  0  0  0  0  0  0  0  0  0
    5.6859   -2.1907    0.0000 H   0  0  0  0  0  0  0  0  0  0  0  0
    7.0888    0.2393    0.0000 H   0  0  0  0  0  0  0  0  0  0  0  0
    2.5508    0.6193    0.0000 H   0  0  0  0  0  0  0  0  0  0  0  0
    7.9548   -1.2607    0.0000 H   0  0  0  0  0  0  0  0  0  0  0  0
    6.8810   -2.8807    0.0000 H   0  0  0  0  0  0  0  0  0  0  0  0
    1.4860    4.6239    0.0000 H   0  0  0  0  0  0  0  0  0  0  0  0
    1.5693    3.8312    0.0000 H   0  0  0  0  0  0  0  0  0  0  0  0
    2.9731    4.9385    0.0000 H   0  0  0  0  0  0  0  0  0  0  0  0
    2.6589    5.7571    0.0000 H   0  0  0  0  0  0  0  0  0  0  0  0
    1.8403    5.4429    0.0000 H   0  0  0  0  0  0  0  0  0  0  0  0
   10.5529   -2.7607    0.0000 H   0  0  0  0  0  0  0  0  0  0  0  0
    9.1500   -5.1907    0.0000 H   0  0  0  0  0  0  0  0  0  0  0  0
  1  4  2  0  0  0  0
  1  5  2  0  0  0  0
  1  8  1  0  0  0  0
  1 14  1  0  0  0  0
  2 20  1  0  0  0  0
  2 24  1  0  0  0  0
  3 28  2  0  0  0  0
  6 25  2  0  0  0  0
  7 26  2  0  0  0  0
  8 20  1  0  0  0  0
  8 33  1  0  0  0  0
  9 15  1  0  0  0  0
  9 21  1  0  0  0  0
  9 34  1  0  0  0  0
 10 11  1  0  0  0  0
 10 20  2  0  0  0  0
 11 24  2  0  0  0  0
 12 25  1  0  0  0  0
 12 28  1  0  0  0  0
 12 42  1  0  0  0  0
 13 26  1  0  0  0  0
 13 28  1  0  0  0  0
 13 41  1  0  0  0  0
 14 16  2  0  0  0  0
 14 17  1  0  0  0  0
 15 18  2  0  0  0  0
 15 19  1  0  0  0  0
 16 18  1  0  0  0  0
 16 29  1  0  0  0  0
 17 19  2  0  0  0  0
 17 30  1  0  0  0  0
 18 31  1  0  0  0  0
 19 32  1  0  0  0  0
 21 22  2  0  0  0  0
 21 35  1  0  0  0  0
 22 25  1  0  0  0  0
 22 26  1  0  0  0  0
 23 24  1  0  0  0  0
 23 27  1  0  0  0  0
 23 36  1  0  0  0  0
 23 37  1  0  0  0  0
 27 38  1  0  0  0  0
 27 39  1  0  0  0  0
 27 40  1  0  0  0  0
M  END
> <PUBCHEM_COMPOUND_CID>
30842099

> <PUBCHEM_COMPOUND_CANONICALIZED>
1

> <PUBCHEM_CACTVS_COMPLEXITY>
751

> <PUBCHEM_CACTVS_HBOND_ACCEPTOR>
10

> <PUBCHEM_CACTVS_HBOND_DONOR>
4

> <PUBCHEM_CACTVS_ROTATABLE_BOND>
6

> <PUBCHEM_CACTVS_SUBSKEYS>
AAADccBzuABgAAAAAAAAAAAAAAAAAWAAAAA8QAAAAAAAAAABwAAAHgQYQAAADAjB0gQz0YLAAAquAiV2cHDSAJJhAhkciJk4ZMiIICro0ZGEIAh4mQJIyMcQAAAAAAQAAAAAAAAACAAAAAAAAAAAAAAAAA==

> <PUBCHEM_IUPAC_OPENEYE_NAME>
4-[(4,6-dioxo-2-thioxo-hexahydropyrimidin-5-ylidene)methylamino]-N-(5-ethyl-1,3,4-thiadiazol-2-yl)benzenesulfonamide

> <PUBCHEM_IUPAC_CAS_NAME>
4-[(4,6-dioxo-2-sulfanylidene-1,3-diazinan-5-ylidene)methylamino]-N-(5-ethyl-1,3,4-thiadiazol-2-yl)benzenesulfonamide

> <PUBCHEM_IUPAC_NAME>
4-[(4,6-dioxo-2-sulfanylidene-1,3-diazinan-5-ylidene)methylamino]-N-(5-ethyl-1,3,4-thiadiazol-2-yl)benzenesulfonamide

> <PUBCHEM_IUPAC_SYSTEMATIC_NAME>
4-[[4,6-bis(oxidanylidene)-2-sulfanylidene-1,3-diazinan-5-ylidene]methylamino]-N-(5-ethyl-1,3,4-thiadiazol-2-yl)benzenesulfonamide

> <PUBCHEM_IUPAC_TRADITIONAL_NAME>
4-[(4,6-diketo-2-thioxo-hexahydropyrimidin-5-ylidene)methylamino]-N-(5-ethyl-1,3,4-thiadiazol-2-yl)benzenesulfonamide

> <PUBCHEM_IUPAC_INCHI>
InChI=1S/C15H14N6O4S3/c1-2-11-19-20-15(27-11)21-28(24,25)9-5-3-8(4-6-9)16-7-10-12(22)17-14(26)18-13(10)23/h3-7,16H,2H2,1H3,(H,20,21)(H2,17,18,22,23,26)

> <PUBCHEM_IUPAC_INCHIKEY>
HEKUTZKBOPYQCI-UHFFFAOYSA-N

> <PUBCHEM_XLOGP3>
1

> <PUBCHEM_EXACT_MASS>
438.023866

> <PUBCHEM_MOLECULAR_FORMULA>
C15H14N6O4S3

> <PUBCHEM_MOLECULAR_WEIGHT>
438.50446

> <PUBCHEM_OPENEYE_CAN_SMILES>
CCC1=NN=C(S1)NS(=O)(=O)C2=CC=C(C=C2)NC=C3C(=O)NC(=S)NC3=O

> <PUBCHEM_OPENEYE_ISO_SMILES>
CCC1=NN=C(S1)NS(=O)(=O)C2=CC=C(C=C2)NC=C3C(=O)NC(=S)NC3=O

> <PUBCHEM_CACTVS_TPSA>
211

> <PUBCHEM_MONOISOTOPIC_WEIGHT>
438.023866

> <PUBCHEM_TOTAL_CHARGE>
0

> <PUBCHEM_HEAVY_ATOM_COUNT>
28

> <PUBCHEM_ATOM_DEF_STEREO_COUNT>
0

> <PUBCHEM_ATOM_UDEF_STEREO_COUNT>
0

> <PUBCHEM_BOND_DEF_STEREO_COUNT>
0

> <PUBCHEM_BOND_UDEF_STEREO_COUNT>
0

> <PUBCHEM_ISOTOPIC_ATOM_COUNT>
0

> <PUBCHEM_COMPONENT_COUNT>
1

> <PUBCHEM_CACTVS_TAUTO_COUNT>
30

> <PUBCHEM_COORDINATE_TYPE>
1
5
255

> <PUBCHEM_BONDANNOTATIONS>
10  11  8
10  20  8
11  24  8
14  16  8
14  17  8
15  18  8
15  19  8
16  18  8
17  19  8
2  20  8
2  24  8

$$$$
30843072
  -OEChem-12041211432D

 42 44  0     0  0  0  0  0  0999 V2000
    5.4641   -2.0000    0.0000 O   0  0  0  0  0  0  0  0  0  0  0  0
    6.3301   -0.5000    0.0000 N   0  0  0  0  0  0  0  0  0  0  0  0
    3.7320   -1.0000    0.0000 C   0  0  0  0  0  0  0  0  0  0  0  0
    4.5981   -0.5000    0.0000 C   0  0  0  0  0  0  0  0  0  0  0  0
    8.0622   -0.5000    0.0000 C   0  0  0  0  0  0  0  0  0  0  0  0
    7.1962   -1.0000    0.0000 C   0  0  0  0  0  0  0  0  0  0  0  0
    3.7320   -2.0000    0.0000 C   0  0  0  0  0  0  0  0  0  0  0  0
    5.4641   -1.0000    0.0000 C   0  0  0  0  0  0  0  0  0  0  0  0
    8.0622    0.5000    0.0000 C   0  0  0  0  0  0  0  0  0  0  0  0
    2.8660   -0.5000    0.0000 C   0  0  0  0  0  0  0  0  0  0  0  0
    8.9282   -1.0000    0.0000 C   0  0  0  0  0  0  0  0  0  0  0  0
    7.1962   -2.0000    0.0000 C   0  0  0  0  0  0  0  0  0  0  0  0
    2.8660   -2.5000    0.0000 C   0  0  0  0  0  0  0  0  0  0  0  0
    4.5981   -2.5000    0.0000 C   0  0  0  0  0  0  0  0  0  0  0  0
    2.0000   -1.0000    0.0000 C   0  0  0  0  0  0  0  0  0  0  0  0
    8.9282   -2.0000    0.0000 C   0  0  0  0  0  0  0  0  0  0  0  0
    8.0622   -2.5000    0.0000 C   0  0  0  0  0  0  0  0  0  0  0  0
    7.1962    1.0000    0.0000 C   0  0  0  0  0  0  0  0  0  0  0  0
    8.9282    1.0000    0.0000 C   0  0  0  0  0  0  0  0  0  0  0  0
    2.0000   -2.0000    0.0000 C   0  0  0  0  0  0  0  0  0  0  0  0
    7.1962    2.0000    0.0000 C   0  0  0  0  0  0  0  0  0  0  0  0
    8.9282    2.0000    0.0000 C   0  0  0  0  0  0  0  0  0  0  0  0
    8.0622    2.5000    0.0000 C   0  0  0  0  0  0  0  0  0  0  0  0
    4.9966   -0.0251    0.0000 H   0  0  0  0  0  0  0  0  0  0  0  0
    4.1996   -0.0251    0.0000 H   0  0  0  0  0  0  0  0  0  0  0  0
    6.3301    0.1200    0.0000 H   0  0  0  0  0  0  0  0  0  0  0  0
    2.8660    0.1200    0.0000 H   0  0  0  0  0  0  0  0  0  0  0  0
    9.4651   -0.6900    0.0000 H   0  0  0  0  0  0  0  0  0  0  0  0
    6.6592   -2.3100    0.0000 H   0  0  0  0  0  0  0  0  0  0  0  0
    2.8660   -3.1200    0.0000 H   0  0  0  0  0  0  0  0  0  0  0  0
    4.2881   -3.0369    0.0000 H   0  0  0  0  0  0  0  0  0  0  0  0
    5.1350   -2.8100    0.0000 H   0  0  0  0  0  0  0  0  0  0  0  0
    4.9081   -1.9631    0.0000 H   0  0  0  0  0  0  0  0  0  0  0  0
    1.4631   -0.6900    0.0000 H   0  0  0  0  0  0  0  0  0  0  0  0
    9.4651   -2.3100    0.0000 H   0  0  0  0  0  0  0  0  0  0  0  0
    8.0622   -3.1200    0.0000 H   0  0  0  0  0  0  0  0  0  0  0  0
    6.6592    0.6900    0.0000 H   0  0  0  0  0  0  0  0  0  0  0  0
    9.4651    0.6900    0.0000 H   0  0  0  0  0  0  0  0  0  0  0  0
    1.4631   -2.3100    0.0000 H   0  0  0  0  0  0  0  0  0  0  0  0
    6.6592    2.3100    0.0000 H   0  0  0  0  0  0  0  0  0  0  0  0
    9.4651    2.3100    0.0000 H   0  0  0  0  0  0  0  0  0  0  0  0
    8.0622    3.1200    0.0000 H   0  0  0  0  0  0  0  0  0  0  0  0
  1  8  2  0  0  0  0
  2  6  1  0  0  0  0
  2  8  1  0  0  0  0
  2 26  1  0  0  0  0
  3  4  1  0  0  0  0
  3  7  1  0  0  0  0
  3 10  2  0  0  0  0
  4  8  1  0  0  0  0
  4 24  1  0  0  0  0
  4 25  1  0  0  0  0
  5  6  1  0  0  0  0
  5  9  1  0  0  0  0
  5 11  2  0  0  0  0
  6 12  2  0  0  0  0
  7 13  2  0  0  0  0
  7 14  1  0  0  0  0
  9 18  2  0  0  0  0
  9 19  1  0  0  0  0
 10 15  1  0  0  0  0
 10 27  1  0  0  0  0
 11 16  1  0  0  0  0
 11 28  1  0  0  0  0
 12 17  1  0  0  0  0
 12 29  1  0  0  0  0
 13 20  1  0  0  0  0
 13 30  1  0  0  0  0
 14 31  1  0  0  0  0
 14 32  1  0  0  0  0
 14 33  1  0  0  0  0
 15 20  2  0  0  0  0
 15 34  1  0  0  0  0
 16 17  2  0  0  0  0
 16 35  1  0  0  0  0
 17 36  1  0  0  0  0
 18 21  1  0  0  0  0
 18 37  1  0  0  0  0
 19 22  2  0  0  0  0
 19 38  1  0  0  0  0
 20 39  1  0  0  0  0
 21 23  2  0  0  0  0
 21 40  1  0  0  0  0
 22 23  1  0  0  0  0
 22 41  1  0  0  0  0
 23 42  1  0  0  0  0
M  END
> <PUBCHEM_COMPOUND_CID>
30843072

> <PUBCHEM_COMPOUND_CANONICALIZED>
1

> <PUBCHEM_CACTVS_COMPLEXITY>
374

> <PUBCHEM_CACTVS_HBOND_ACCEPTOR>
1

> <PUBCHEM_CACTVS_HBOND_DONOR>
1

> <PUBCHEM_CACTVS_ROTATABLE_BOND>
4

> <PUBCHEM_CACTVS_SUBSKEYS>
AAADceB6IAAAAAAAAAAAAAAAAAAAAAAAAAAwYMAAAAAAAAABUAAAHgAQAAAADAiBmAAywILAAACIAiVSUACCAAAhAgAIiAEAZIgIIDLAlZGEIAhglADIyAcYiMCOgAAAAAASAAAAAAAAACQAAAAAAAAAAA==

> <PUBCHEM_IUPAC_OPENEYE_NAME>
2-(o-tolyl)-N-(2-phenylphenyl)acetamide

> <PUBCHEM_IUPAC_CAS_NAME>
2-(2-methylphenyl)-N-(2-phenylphenyl)acetamide

> <PUBCHEM_IUPAC_NAME>
2-(2-methylphenyl)-N-(2-phenylphenyl)acetamide

> <PUBCHEM_IUPAC_SYSTEMATIC_NAME>
2-(2-methylphenyl)-N-(2-phenylphenyl)ethanamide

> <PUBCHEM_IUPAC_TRADITIONAL_NAME>
2-(o-tolyl)-N-(2-phenylphenyl)acetamide

> <PUBCHEM_IUPAC_INCHI>
InChI=1S/C21H19NO/c1-16-9-5-6-12-18(16)15-21(23)22-20-14-8-7-13-19(20)17-10-3-2-4-11-17/h2-14H,15H2,1H3,(H,22,23)

> <PUBCHEM_IUPAC_INCHIKEY>
JTVFFQRTPJREHM-UHFFFAOYSA-N

> <PUBCHEM_XLOGP3>
4

> <PUBCHEM_EXACT_MASS>
301.146664

> <PUBCHEM_MOLECULAR_FORMULA>
C21H19NO

> <PUBCHEM_MOLECULAR_WEIGHT>
301.38166

> <PUBCHEM_OPENEYE_CAN_SMILES>
CC1=CC=CC=C1CC(=O)NC2=CC=CC=C2C3=CC=CC=C3

> <PUBCHEM_OPENEYE_ISO_SMILES>
CC1=CC=CC=C1CC(=O)NC2=CC=CC=C2C3=CC=CC=C3

> <PUBCHEM_CACTVS_TPSA>
29.1

> <PUBCHEM_MONOISOTOPIC_WEIGHT>
301.146664

> <PUBCHEM_TOTAL_CHARGE>
0

> <PUBCHEM_HEAVY_ATOM_COUNT>
23

> <PUBCHEM_ATOM_DEF_STEREO_COUNT>
0

> <PUBCHEM_ATOM_UDEF_STEREO_COUNT>
0

> <PUBCHEM_BOND_DEF_STEREO_COUNT>
0

> <PUBCHEM_BOND_UDEF_STEREO_COUNT>
0

> <PUBCHEM_ISOTOPIC_ATOM_COUNT>
0

> <PUBCHEM_COMPONENT_COUNT>
1

> <PUBCHEM_CACTVS_TAUTO_COUNT>
3

> <PUBCHEM_COORDINATE_TYPE>
1
5
255

> <PUBCHEM_BONDANNOTATIONS>
10  15  8
11  16  8
12  17  8
13  20  8
15  20  8
16  17  8
18  21  8
19  22  8
21  23  8
22  23  8
3  10  8
3  7  8
5  11  8
5  6  8
6  12  8
7  13  8
9  18  8
9  19  8

$$$$
30847443
  -OEChem-12041211432D

 38 39  0     0  0  0  0  0  0999 V2000
    6.3301   -0.2500    0.0000 O   0  0  0  0  0  0  0  0  0  0  0  0
    4.5981   -0.2500    0.0000 N   0  0  0  0  0  0  0  0  0  0  0  0
    3.7320   -1.7500    0.0000 C   0  0  0  0  0  0  0  0  0  0  0  0
    5.4641    1.2500    0.0000 C   0  0  0  0  0  0  0  0  0  0  0  0
    6.3301    1.7500    0.0000 C   0  0  0  0  0  0  0  0  0  0  0  0
    4.5981   -1.2500    0.0000 C   0  0  0  0  0  0  0  0  0  0  0  0
    2.8660   -1.2500    0.0000 C   0  0  0  0  0  0  0  0  0  0  0  0
    7.1962    1.2500    0.0000 C   0  0  0  0  0  0  0  0  0  0  0  0
    5.4641    0.2500    0.0000 C   0  0  0  0  0  0  0  0  0  0  0  0
    3.7320   -2.7500    0.0000 C   0  0  0  0  0  0  0  0  0  0  0  0
    5.4641   -1.7500    0.0000 C   0  0  0  0  0  0  0  0  0  0  0  0
    6.3301    2.7500    0.0000 C   0  0  0  0  0  0  0  0  0  0  0  0
    8.0622    1.7500    0.0000 C   0  0  0  0  0  0  0  0  0  0  0  0
    2.0000   -1.7500    0.0000 C   0  0  0  0  0  0  0  0  0  0  0  0
    7.1962    0.2500    0.0000 C   0  0  0  0  0  0  0  0  0  0  0  0
    4.5981   -3.2500    0.0000 C   0  0  0  0  0  0  0  0  0  0  0  0
    5.4641   -2.7500    0.0000 C   0  0  0  0  0  0  0  0  0  0  0  0
    7.1962    3.2500    0.0000 C   0  0  0  0  0  0  0  0  0  0  0  0
    8.0622    2.7500    0.0000 C   0  0  0  0  0  0  0  0  0  0  0  0
    5.2520    1.8326    0.0000 H   0  0  0  0  0  0  0  0  0  0  0  0
    4.8535    1.1423    0.0000 H   0  0  0  0  0  0  0  0  0  0  0  0
    3.2646   -0.7751    0.0000 H   0  0  0  0  0  0  0  0  0  0  0  0
    2.4675   -0.7751    0.0000 H   0  0  0  0  0  0  0  0  0  0  0  0
    4.0611    0.0600    0.0000 H   0  0  0  0  0  0  0  0  0  0  0  0
    3.1951   -3.0600    0.0000 H   0  0  0  0  0  0  0  0  0  0  0  0
    6.0010   -1.4400    0.0000 H   0  0  0  0  0  0  0  0  0  0  0  0
    5.7932    3.0600    0.0000 H   0  0  0  0  0  0  0  0  0  0  0  0
    8.5991    1.4400    0.0000 H   0  0  0  0  0  0  0  0  0  0  0  0
    1.6900   -1.2131    0.0000 H   0  0  0  0  0  0  0  0  0  0  0  0
    1.4631   -2.0600    0.0000 H   0  0  0  0  0  0  0  0  0  0  0  0
    2.3100   -2.2869    0.0000 H   0  0  0  0  0  0  0  0  0  0  0  0
    6.5762    0.2500    0.0000 H   0  0  0  0  0  0  0  0  0  0  0  0
    7.1962   -0.3700    0.0000 H   0  0  0  0  0  0  0  0  0  0  0  0
    7.8162    0.2500    0.0000 H   0  0  0  0  0  0  0  0  0  0  0  0
    4.5981   -3.8700    0.0000 H   0  0  0  0  0  0  0  0  0  0  0  0
    6.0010   -3.0600    0.0000 H   0  0  0  0  0  0  0  0  0  0  0  0
    7.1962    3.8700    0.0000 H   0  0  0  0  0  0  0  0  0  0  0  0
    8.5991    3.0600    0.0000 H   0  0  0  0  0  0  0  0  0  0  0  0
  1  9  2  0  0  0  0
  2  6  1  0  0  0  0
  2  9  1  0  0  0  0
  2 24  1  0  0  0  0
  3  6  1  0  0  0  0
  3  7  1  0  0  0  0
  3 10  2  0  0  0  0
  4  5  1  0  0  0  0
  4  9  1  0  0  0  0
  4 20  1  0  0  0  0
  4 21  1  0  0  0  0
  5  8  1  0  0  0  0
  5 12  2  0  0  0  0
  6 11  2  0  0  0  0
  7 14  1  0  0  0  0
  7 22  1  0  0  0  0
  7 23  1  0  0  0  0
  8 13  2  0  0  0  0
  8 15  1  0  0  0  0
 10 16  1  0  0  0  0
 10 25  1  0  0  0  0
 11 17  1  0  0  0  0
 11 26  1  0  0  0  0
 12 18  1  0  0  0  0
 12 27  1  0  0  0  0
 13 19  1  0  0  0  0
 13 28  1  0  0  0  0
 14 29  1  0  0  0  0
 14 30  1  0  0  0  0
 14 31  1  0  0  0  0
 15 32  1  0  0  0  0
 15 33  1  0  0  0  0
 15 34  1  0  0  0  0
 16 17  2  0  0  0  0
 16 35  1  0  0  0  0
 17 36  1  0  0  0  0
 18 19  2  0  0  0  0
 18 37  1  0  0  0  0
 19 38  1  0  0  0  0
M  END
> <PUBCHEM_COMPOUND_CID>
30847443

> <PUBCHEM_COMPOUND_CANONICALIZED>
1

> <PUBCHEM_CACTVS_COMPLEXITY>
289

> <PUBCHEM_CACTVS_HBOND_ACCEPTOR>
1

> <PUBCHEM_CACTVS_HBOND_DONOR>
1

> <PUBCHEM_CACTVS_ROTATABLE_BOND>
4

> <PUBCHEM_CACTVS_SUBSKEYS>
AAADceB6IAAAAAAAAAAAAAAAAAAAAAAAAAAwYAAAAAAAAAABQAAAHgAQAAAADAiBmAAywILAAACIAiVSUACCAAAhAgAIiAEAZIgIIDLAlZGEIAhglADIyAcYiICOgAAAAAASAAAAAAAAACQAAAAAAAAAAA==

> <PUBCHEM_IUPAC_OPENEYE_NAME>
N-(2-ethylphenyl)-2-(o-tolyl)acetamide

> <PUBCHEM_IUPAC_CAS_NAME>
N-(2-ethylphenyl)-2-(2-methylphenyl)acetamide

> <PUBCHEM_IUPAC_NAME>
N-(2-ethylphenyl)-2-(2-methylphenyl)acetamide

> <PUBCHEM_IUPAC_SYSTEMATIC_NAME>
N-(2-ethylphenyl)-2-(2-methylphenyl)ethanamide

> <PUBCHEM_IUPAC_TRADITIONAL_NAME>
N-(2-ethylphenyl)-2-(o-tolyl)acetamide

> <PUBCHEM_IUPAC_INCHI>
InChI=1S/C17H19NO/c1-3-14-9-6-7-11-16(14)18-17(19)12-15-10-5-4-8-13(15)2/h4-11H,3,12H2,1-2H3,(H,18,19)

> <PUBCHEM_IUPAC_INCHIKEY>
ULFVDSDFKQHFPR-UHFFFAOYSA-N

> <PUBCHEM_XLOGP3>
3.3

> <PUBCHEM_EXACT_MASS>
253.146664

> <PUBCHEM_MOLECULAR_FORMULA>
C17H19NO

> <PUBCHEM_MOLECULAR_WEIGHT>
253.33886

> <PUBCHEM_OPENEYE_CAN_SMILES>
CCC1=CC=CC=C1NC(=O)CC2=CC=CC=C2C

> <PUBCHEM_OPENEYE_ISO_SMILES>
CCC1=CC=CC=C1NC(=O)CC2=CC=CC=C2C

> <PUBCHEM_CACTVS_TPSA>
29.1

> <PUBCHEM_MONOISOTOPIC_WEIGHT>
253.146664

> <PUBCHEM_TOTAL_CHARGE>
0

> <PUBCHEM_HEAVY_ATOM_COUNT>
19

> <PUBCHEM_ATOM_DEF_STEREO_COUNT>
0

> <PUBCHEM_ATOM_UDEF_STEREO_COUNT>
0

> <PUBCHEM_BOND_DEF_STEREO_COUNT>
0

> <PUBCHEM_BOND_UDEF_STEREO_COUNT>
0

> <PUBCHEM_ISOTOPIC_ATOM_COUNT>
0

> <PUBCHEM_COMPONENT_COUNT>
1

> <PUBCHEM_CACTVS_TAUTO_COUNT>
3

> <PUBCHEM_COORDINATE_TYPE>
1
5
255

> <PUBCHEM_BONDANNOTATIONS>
10  16  8
11  17  8
12  18  8
13  19  8
16  17  8
18  19  8
3  10  8
3  6  8
5  12  8
5  8  8
6  11  8
8  13  8

$$$$
