25526788
  -OEChem-12041211272D

 48 50  0     0  0  0  0  0  0999 V2000
    5.6103    1.6375    0.0000 O   0  0  0  0  0  0  0  0  0  0  0  0
    7.2566    1.0994    0.0000 N   0  0  0  0  0  0  0  0  0  0  0  0
    4.6783   -2.8236    0.0000 N   0  0  0  0  0  0  0  0  0  0  0  0
    7.9244    0.3551    0.0000 C   0  0  0  0  0  0  0  0  0  0  0  0
    4.9889   -0.2636    0.0000 C   0  0  0  0  0  0  0  0  0  0  0  0
    5.9674   -0.0573    0.0000 C   0  0  0  0  0  0  0  0  0  0  0  0
    4.6783   -1.2141    0.0000 C   0  0  0  0  0  0  0  0  0  0  0  0
    7.5673    2.0499    0.0000 C   0  0  0  0  0  0  0  0  0  0  0  0
    6.2781    0.8932    0.0000 C   0  0  0  0  0  0  0  0  0  0  0  0
    3.7320   -1.5188    0.0000 C   0  0  0  0  0  0  0  0  0  0  0  0
    7.6138   -0.5954    0.0000 C   0  0  0  0  0  0  0  0  0  0  0  0
    8.9030    0.5613    0.0000 C   0  0  0  0  0  0  0  0  0  0  0  0
    3.7320   -2.5188    0.0000 C   0  0  0  0  0  0  0  0  0  0  0  0
    5.2619   -2.0188    0.0000 C   0  0  0  0  0  0  0  0  0  0  0  0
    8.5458    2.2561    0.0000 C   0  0  0  0  0  0  0  0  0  0  0  0
    2.8660   -1.0188    0.0000 C   0  0  0  0  0  0  0  0  0  0  0  0
    2.8660   -3.0188    0.0000 C   0  0  0  0  0  0  0  0  0  0  0  0
    9.2136    1.5118    0.0000 C   0  0  0  0  0  0  0  0  0  0  0  0
    8.8564    3.2066    0.0000 C   0  0  0  0  0  0  0  0  0  0  0  0
    2.0000   -1.5188    0.0000 C   0  0  0  0  0  0  0  0  0  0  0  0
    2.0000   -2.5188    0.0000 C   0  0  0  0  0  0  0  0  0  0  0  0
   10.1921    1.7180    0.0000 C   0  0  0  0  0  0  0  0  0  0  0  0
    9.8349    3.4129    0.0000 C   0  0  0  0  0  0  0  0  0  0  0  0
   10.5028    2.6686    0.0000 C   0  0  0  0  0  0  0  0  0  0  0  0
    8.1171    0.9444    0.0000 H   0  0  0  0  0  0  0  0  0  0  0  0
    4.9684    0.3561    0.0000 H   0  0  0  0  0  0  0  0  0  0  0  0
    4.3751   -0.1762    0.0000 H   0  0  0  0  0  0  0  0  0  0  0  0
    5.9880   -0.6770    0.0000 H   0  0  0  0  0  0  0  0  0  0  0  0
    6.5812   -0.1447    0.0000 H   0  0  0  0  0  0  0  0  0  0  0  0
    7.5467    2.6696    0.0000 H   0  0  0  0  0  0  0  0  0  0  0  0
    6.9534    2.1373    0.0000 H   0  0  0  0  0  0  0  0  0  0  0  0
    7.0245   -0.4028    0.0000 H   0  0  0  0  0  0  0  0  0  0  0  0
    9.0308   -0.0454    0.0000 H   0  0  0  0  0  0  0  0  0  0  0  0
    9.5096    0.6892    0.0000 H   0  0  0  0  0  0  0  0  0  0  0  0
    8.7751    1.1680    0.0000 H   0  0  0  0  0  0  0  0  0  0  0  0
    7.4212   -1.1848    0.0000 H   0  0  0  0  0  0  0  0  0  0  0  0
    8.2031   -0.7880    0.0000 H   0  0  0  0  0  0  0  0  0  0  0  0
    5.8819   -2.0188    0.0000 H   0  0  0  0  0  0  0  0  0  0  0  0
    4.8709   -3.4129    0.0000 H   0  0  0  0  0  0  0  0  0  0  0  0
    2.8660   -0.3988    0.0000 H   0  0  0  0  0  0  0  0  0  0  0  0
    2.8660   -3.6388    0.0000 H   0  0  0  0  0  0  0  0  0  0  0  0
    9.0210    0.9225    0.0000 H   0  0  0  0  0  0  0  0  0  0  0  0
    8.4424    3.6681    0.0000 H   0  0  0  0  0  0  0  0  0  0  0  0
    1.4631   -1.2088    0.0000 H   0  0  0  0  0  0  0  0  0  0  0  0
    1.4631   -2.8288    0.0000 H   0  0  0  0  0  0  0  0  0  0  0  0
   10.6062    1.2566    0.0000 H   0  0  0  0  0  0  0  0  0  0  0  0
   10.0276    4.0022    0.0000 H   0  0  0  0  0  0  0  0  0  0  0  0
   11.1095    2.7964    0.0000 H   0  0  0  0  0  0  0  0  0  0  0  0
  1  9  2  0  0  0  0
  2  4  1  0  0  0  0
  2  8  1  0  0  0  0
  2  9  1  0  0  0  0
  3 13  1  0  0  0  0
  3 14  1  0  0  0  0
  3 39  1  0  0  0  0
  4 11  1  0  0  0  0
  4 12  1  0  0  0  0
  4 25  1  0  0  0  0
  5  6  1  0  0  0  0
  5  7  1  0  0  0  0
  5 26  1  0  0  0  0
  5 27  1  0  0  0  0
  6  9  1  0  0  0  0
  6 28  1  0  0  0  0
  6 29  1  0  0  0  0
  7 10  1  0  0  0  0
  7 14  2  0  0  0  0
  8 15  1  0  0  0  0
  8 30  1  0  0  0  0
  8 31  1  0  0  0  0
 10 13  1  0  0  0  0
 10 16  2  0  0  0  0
 11 32  1  0  0  0  0
 11 36  1  0  0  0  0
 11 37  1  0  0  0  0
 12 33  1  0  0  0  0
 12 34  1  0  0  0  0
 12 35  1  0  0  0  0
 13 17  2  0  0  0  0
 14 38  1  0  0  0  0
 15 18  2  0  0  0  0
 15 19  1  0  0  0  0
 16 20  1  0  0  0  0
 16 40  1  0  0  0  0
 17 21  1  0  0  0  0
 17 41  1  0  0  0  0
 18 22  1  0  0  0  0
 18 42  1  0  0  0  0
 19 23  2  0  0  0  0
 19 43  1  0  0  0  0
 20 21  2  0  0  0  0
 20 44  1  0  0  0  0
 21 45  1  0  0  0  0
 22 24  2  0  0  0  0
 22 46  1  0  0  0  0
 23 24  1  0  0  0  0
 23 47  1  0  0  0  0
 24 48  1  0  0  0  0
M  END
> <PUBCHEM_COMPOUND_CID>
25526788

> <PUBCHEM_COMPOUND_CANONICALIZED>
1

> <PUBCHEM_CACTVS_COMPLEXITY>
403

> <PUBCHEM_CACTVS_HBOND_ACCEPTOR>
1

> <PUBCHEM_CACTVS_HBOND_DONOR>
1

> <PUBCHEM_CACTVS_ROTATABLE_BOND>
6

> <PUBCHEM_CACTVS_SUBSKEYS>
AAADceB7IAAAAAAAAAAAAAAAAAAAAWAAAAAwYAAAAAAAAFgB9AAAHgAQAAAADCjBngQ+wPPJkACoAzV3VACCgCAxAiAI2aE4ZJgIIPLAkZGEIAhglgDIyAcYicCOgAAAAAACAAAAAAAAAAQAAAAAAAAAAA==

> <PUBCHEM_IUPAC_OPENEYE_NAME>
N-benzyl-3-(1H-indol-3-yl)-N-isopropyl-propanamide

> <PUBCHEM_IUPAC_CAS_NAME>
3-(1H-indol-3-yl)-N-(phenylmethyl)-N-propan-2-ylpropanamide

> <PUBCHEM_IUPAC_NAME>
N-benzyl-3-(1H-indol-3-yl)-N-propan-2-ylpropanamide

> <PUBCHEM_IUPAC_SYSTEMATIC_NAME>
3-(1H-indol-3-yl)-N-(phenylmethyl)-N-propan-2-yl-propanamide

> <PUBCHEM_IUPAC_TRADITIONAL_NAME>
N-benzyl-3-(1H-indol-3-yl)-N-isopropyl-propionamide

> <PUBCHEM_IUPAC_INCHI>
InChI=1S/C21H24N2O/c1-16(2)23(15-17-8-4-3-5-9-17)21(24)13-12-18-14-22-20-11-7-6-10-19(18)20/h3-11,14,16,22H,12-13,15H2,1-2H3

> <PUBCHEM_IUPAC_INCHIKEY>
QAIIOSKTAGZIQL-UHFFFAOYSA-N

> <PUBCHEM_XLOGP3>
4

> <PUBCHEM_EXACT_MASS>
320.188863

> <PUBCHEM_MOLECULAR_FORMULA>
C21H24N2O

> <PUBCHEM_MOLECULAR_WEIGHT>
320.42806

> <PUBCHEM_OPENEYE_CAN_SMILES>
CC(C)N(CC1=CC=CC=C1)C(=O)CCC2=CNC3=CC=CC=C32

> <PUBCHEM_OPENEYE_ISO_SMILES>
CC(C)N(CC1=CC=CC=C1)C(=O)CCC2=CNC3=CC=CC=C32

> <PUBCHEM_CACTVS_TPSA>
36.1

> <PUBCHEM_MONOISOTOPIC_WEIGHT>
320.188863

> <PUBCHEM_TOTAL_CHARGE>
0

> <PUBCHEM_HEAVY_ATOM_COUNT>
24

> <PUBCHEM_ATOM_DEF_STEREO_COUNT>
0

> <PUBCHEM_ATOM_UDEF_STEREO_COUNT>
0

> <PUBCHEM_BOND_DEF_STEREO_COUNT>
0

> <PUBCHEM_BOND_UDEF_STEREO_COUNT>
0

> <PUBCHEM_ISOTOPIC_ATOM_COUNT>
0

> <PUBCHEM_COMPONENT_COUNT>
1

> <PUBCHEM_CACTVS_TAUTO_COUNT>
1

> <PUBCHEM_COORDINATE_TYPE>
1
5
255

> <PUBCHEM_BONDANNOTATIONS>
10  13  8
10  16  8
13  17  8
15  18  8
15  19  8
16  20  8
17  21  8
18  22  8
19  23  8
20  21  8
22  24  8
23  24  8
3  13  8
3  14  8
7  10  8
7  14  8

$$$$
25528791
  -OEChem-12041211272D

 30 30  0     0  0  0  0  0  0999 V2000
    5.2181    2.1270    0.0000 N   0  3  0  0  0  0  0  0  0  0  0  0
    2.6200   -2.3730    0.0000 N   0  3  0  0  0  0  0  0  0  0  0  0
    4.3520    1.6270    0.0000 C   0  0  0  0  0  0  0  0  0  0  0  0
    4.3520    0.6270    0.0000 C   0  0  0  0  0  0  0  0  0  0  0  0
    6.0841    2.6270    0.0000 C   0  0  0  0  0  0  0  0  0  0  0  0
    4.7181    2.9930    0.0000 C   0  0  0  0  0  0  0  0  0  0  0  0
    3.4860    0.1270    0.0000 C   0  0  0  0  0  0  0  0  0  0  0  0
    3.4860   -0.8730    0.0000 C   0  0  0  0  0  0  0  0  0  0  0  0
    5.2181    0.1270    0.0000 C   0  0  0  0  0  0  0  0  0  0  0  0
    2.6200   -1.3730    0.0000 C   0  0  0  0  0  0  0  0  0  0  0  0
    4.3520   -1.3730    0.0000 C   0  0  0  0  0  0  0  0  0  0  0  0
    5.2181   -0.8730    0.0000 C   0  0  0  0  0  0  0  0  0  0  0  0
    5.5281    1.5900    0.0000 H   0  0  0  0  0  0  0  0  0  0  0  0
    4.1400    2.2096    0.0000 H   0  0  0  0  0  0  0  0  0  0  0  0
    3.7415    1.5193    0.0000 H   0  0  0  0  0  0  0  0  0  0  0  0
    6.3941    2.0901    0.0000 H   0  0  0  0  0  0  0  0  0  0  0  0
    5.2550    3.3030    0.0000 H   0  0  0  0  0  0  0  0  0  0  0  0
    4.4081    3.5300    0.0000 H   0  0  0  0  0  0  0  0  0  0  0  0
    4.1811    2.6830    0.0000 H   0  0  0  0  0  0  0  0  0  0  0  0
    6.6210    2.9370    0.0000 H   0  0  0  0  0  0  0  0  0  0  0  0
    5.7741    3.1639    0.0000 H   0  0  0  0  0  0  0  0  0  0  0  0
    2.9491    0.4370    0.0000 H   0  0  0  0  0  0  0  0  0  0  0  0
    5.7550    0.4370    0.0000 H   0  0  0  0  0  0  0  0  0  0  0  0
    2.4080   -0.7904    0.0000 H   0  0  0  0  0  0  0  0  0  0  0  0
    2.0094   -1.4807    0.0000 H   0  0  0  0  0  0  0  0  0  0  0  0
    4.3520   -1.9930    0.0000 H   0  0  0  0  0  0  0  0  0  0  0  0
    5.7550   -1.1830    0.0000 H   0  0  0  0  0  0  0  0  0  0  0  0
    2.6200   -2.9930    0.0000 H   0  0  0  0  0  0  0  0  0  0  0  0
    2.0000   -2.3730    0.0000 H   0  0  0  0  0  0  0  0  0  0  0  0
    3.2400   -2.3730    0.0000 H   0  0  0  0  0  0  0  0  0  0  0  0
  1  3  1  0  0  0  0
  1  5  1  0  0  0  0
  1  6  1  0  0  0  0
  1 13  1  0  0  0  0
  2 10  1  0  0  0  0
  2 28  1  0  0  0  0
  2 29  1  0  0  0  0
  2 30  1  0  0  0  0
  3  4  1  0  0  0  0
  3 14  1  0  0  0  0
  3 15  1  0  0  0  0
  4  7  1  0  0  0  0
  4  9  2  0  0  0  0
  5 16  1  0  0  0  0
  5 20  1  0  0  0  0
  5 21  1  0  0  0  0
  6 17  1  0  0  0  0
  6 18  1  0  0  0  0
  6 19  1  0  0  0  0
  7  8  2  0  0  0  0
  7 22  1  0  0  0  0
  8 10  1  0  0  0  0
  8 11  1  0  0  0  0
  9 12  1  0  0  0  0
  9 23  1  0  0  0  0
 10 24  1  0  0  0  0
 10 25  1  0  0  0  0
 11 12  2  0  0  0  0
 11 26  1  0  0  0  0
 12 27  1  0  0  0  0
M  CHG  2   1   1   2   1
M  END
> <PUBCHEM_COMPOUND_CID>
25528791

> <PUBCHEM_COMPOUND_CANONICALIZED>
1

> <PUBCHEM_CACTVS_COMPLEXITY>
123

> <PUBCHEM_CACTVS_HBOND_ACCEPTOR>
0

> <PUBCHEM_CACTVS_HBOND_DONOR>
2

> <PUBCHEM_CACTVS_ROTATABLE_BOND>
3

> <PUBCHEM_CACTVS_SUBSKEYS>
AAADceBzAAAAAAAAAAAAAAAAAAAAAAAAAAAwAAAAAAAAAAABAAAAHAAQAAAADADBGAQyAIPAAACAAiBCAACCAAAgAAAIiIAIBIgIICKAkRGEIAhggAAIiAcQgEAOAAACAAAAAAAAAAQAAAAAAAAAAAAAAA==

> <PUBCHEM_IUPAC_OPENEYE_NAME>
[3-(azaniumylmethyl)phenyl]methyl-dimethyl-ammonium

> <PUBCHEM_IUPAC_CAS_NAME>
[3-(ammoniomethyl)phenyl]methyl-dimethylammonium

> <PUBCHEM_IUPAC_NAME>
[3-(azaniumylmethyl)phenyl]methyl-dimethylazanium

> <PUBCHEM_IUPAC_SYSTEMATIC_NAME>
[3-(azaniumylmethyl)phenyl]methyl-dimethyl-azanium

> <PUBCHEM_IUPAC_TRADITIONAL_NAME>
[3-(ammoniomethyl)benzyl]-dimethyl-ammonium

> <PUBCHEM_IUPAC_INCHI>
InChI=1S/C10H16N2/c1-12(2)8-10-5-3-4-9(6-10)7-11/h3-6H,7-8,11H2,1-2H3/p+2

> <PUBCHEM_IUPAC_INCHIKEY>
VOVDYPSBXVIIAH-UHFFFAOYSA-P

> <PUBCHEM_XLOGP3>
0.8

> <PUBCHEM_EXACT_MASS>
166.146999

> <PUBCHEM_MOLECULAR_FORMULA>
C10H18N2+2

> <PUBCHEM_MOLECULAR_WEIGHT>
166.26332

> <PUBCHEM_OPENEYE_CAN_SMILES>
C[NH+](C)CC1=CC=CC(=C1)C[NH3+]

> <PUBCHEM_OPENEYE_ISO_SMILES>
C[NH+](C)CC1=CC=CC(=C1)C[NH3+]

> <PUBCHEM_CACTVS_TPSA>
32.1

> <PUBCHEM_MONOISOTOPIC_WEIGHT>
166.146999

> <PUBCHEM_TOTAL_CHARGE>
2

> <PUBCHEM_HEAVY_ATOM_COUNT>
12

> <PUBCHEM_ATOM_DEF_STEREO_COUNT>
0

> <PUBCHEM_ATOM_UDEF_STEREO_COUNT>
0

> <PUBCHEM_BOND_DEF_STEREO_COUNT>
0

> <PUBCHEM_BOND_UDEF_STEREO_COUNT>
0

> <PUBCHEM_ISOTOPIC_ATOM_COUNT>
0

> <PUBCHEM_COMPONENT_COUNT>
1

> <PUBCHEM_CACTVS_TAUTO_COUNT>
1

> <PUBCHEM_COORDINATE_TYPE>
1
5
255

> <PUBCHEM_BONDANNOTATIONS>
11  12  8
4  7  8
4  9  8
7  8  8
8  11  8
9  12  8

$$$$
25538635
  -OEChem-12041211282D

 38 39  0     0  0  0  0  0  0999 V2000
    6.6353   -0.6985    0.0000 O   0  0  0  0  0  0  0  0  0  0  0  0
    6.2781    0.9963    0.0000 N   0  0  0  0  0  0  0  0  0  0  0  0
    4.6783   -2.7204    0.0000 N   0  0  0  0  0  0  0  0  0  0  0  0
    7.2566    1.2025    0.0000 C   0  0  0  0  0  0  0  0  0  0  0  0
    7.5673    2.1530    0.0000 C   0  0  0  0  0  0  0  0  0  0  0  0
    4.6783   -1.1110    0.0000 C   0  0  0  0  0  0  0  0  0  0  0  0
    4.9889   -0.1605    0.0000 C   0  0  0  0  0  0  0  0  0  0  0  0
    3.7320   -1.4157    0.0000 C   0  0  0  0  0  0  0  0  0  0  0  0
    5.9674    0.0458    0.0000 C   0  0  0  0  0  0  0  0  0  0  0  0
    8.5458    2.3592    0.0000 C   0  0  0  0  0  0  0  0  0  0  0  0
    3.7320   -2.4157    0.0000 C   0  0  0  0  0  0  0  0  0  0  0  0
    5.2619   -1.9157    0.0000 C   0  0  0  0  0  0  0  0  0  0  0  0
    5.6103    1.7406    0.0000 C   0  0  0  0  0  0  0  0  0  0  0  0
    2.8660   -0.9157    0.0000 C   0  0  0  0  0  0  0  0  0  0  0  0
    2.8660   -2.9157    0.0000 C   0  0  0  0  0  0  0  0  0  0  0  0
    8.8564    3.3098    0.0000 C   0  0  0  0  0  0  0  0  0  0  0  0
    2.0000   -1.4157    0.0000 C   0  0  0  0  0  0  0  0  0  0  0  0
    2.0000   -2.4157    0.0000 C   0  0  0  0  0  0  0  0  0  0  0  0
    7.2772    0.5828    0.0000 H   0  0  0  0  0  0  0  0  0  0  0  0
    7.8704    1.1152    0.0000 H   0  0  0  0  0  0  0  0  0  0  0  0
    7.5467    2.7727    0.0000 H   0  0  0  0  0  0  0  0  0  0  0  0
    6.9534    2.2404    0.0000 H   0  0  0  0  0  0  0  0  0  0  0  0
    4.9684    0.4592    0.0000 H   0  0  0  0  0  0  0  0  0  0  0  0
    4.3751   -0.0731    0.0000 H   0  0  0  0  0  0  0  0  0  0  0  0
    8.5663    1.7396    0.0000 H   0  0  0  0  0  0  0  0  0  0  0  0
    9.1596    2.2719    0.0000 H   0  0  0  0  0  0  0  0  0  0  0  0
    5.8819   -1.9157    0.0000 H   0  0  0  0  0  0  0  0  0  0  0  0
    4.8709   -3.3098    0.0000 H   0  0  0  0  0  0  0  0  0  0  0  0
    6.0717    2.1546    0.0000 H   0  0  0  0  0  0  0  0  0  0  0  0
    5.1962    2.2020    0.0000 H   0  0  0  0  0  0  0  0  0  0  0  0
    5.1488    1.3265    0.0000 H   0  0  0  0  0  0  0  0  0  0  0  0
    2.8660   -0.2957    0.0000 H   0  0  0  0  0  0  0  0  0  0  0  0
    2.8660   -3.5357    0.0000 H   0  0  0  0  0  0  0  0  0  0  0  0
    9.4458    3.1172    0.0000 H   0  0  0  0  0  0  0  0  0  0  0  0
    9.0490    3.8991    0.0000 H   0  0  0  0  0  0  0  0  0  0  0  0
    8.2671    3.5024    0.0000 H   0  0  0  0  0  0  0  0  0  0  0  0
    1.4631   -1.1057    0.0000 H   0  0  0  0  0  0  0  0  0  0  0  0
    1.4631   -2.7257    0.0000 H   0  0  0  0  0  0  0  0  0  0  0  0
  1  9  2  0  0  0  0
  2  4  1  0  0  0  0
  2  9  1  0  0  0  0
  2 13  1  0  0  0  0
  3 11  1  0  0  0  0
  3 12  1  0  0  0  0
  3 28  1  0  0  0  0
  4  5  1  0  0  0  0
  4 19  1  0  0  0  0
  4 20  1  0  0  0  0
  5 10  1  0  0  0  0
  5 21  1  0  0  0  0
  5 22  1  0  0  0  0
  6  7  1  0  0  0  0
  6  8  1  0  0  0  0
  6 12  2  0  0  0  0
  7  9  1  0  0  0  0
  7 23  1  0  0  0  0
  7 24  1  0  0  0  0
  8 11  1  0  0  0  0
  8 14  2  0  0  0  0
 10 16  1  0  0  0  0
 10 25  1  0  0  0  0
 10 26  1  0  0  0  0
 11 15  2  0  0  0  0
 12 27  1  0  0  0  0
 13 29  1  0  0  0  0
 13 30  1  0  0  0  0
 13 31  1  0  0  0  0
 14 17  1  0  0  0  0
 14 32  1  0  0  0  0
 15 18  1  0  0  0  0
 15 33  1  0  0  0  0
 16 34  1  0  0  0  0
 16 35  1  0  0  0  0
 16 36  1  0  0  0  0
 17 18  2  0  0  0  0
 17 37  1  0  0  0  0
 18 38  1  0  0  0  0
M  END
> <PUBCHEM_COMPOUND_CID>
25538635

> <PUBCHEM_COMPOUND_CANONICALIZED>
1

> <PUBCHEM_CACTVS_COMPLEXITY>
280

> <PUBCHEM_CACTVS_HBOND_ACCEPTOR>
1

> <PUBCHEM_CACTVS_HBOND_DONOR>
1

> <PUBCHEM_CACTVS_ROTATABLE_BOND>
5

> <PUBCHEM_CACTVS_SUBSKEYS>
AAADceBzIAAAAAAAAAAAAAAAAAAAAWAAAAAwAAAAAAAAAFgB8AAAHgAQAAAADAjBngQ+wPPJkACoAzV3VACCgCAxAiAI2aE4ZJgIIPLAlZGEIAhglgDIyAccicCegAAAAAACAAAAAAAAAAQAAAAAAAAAAA==

> <PUBCHEM_IUPAC_OPENEYE_NAME>
N-butyl-2-(1H-indol-3-yl)-N-methyl-acetamide

> <PUBCHEM_IUPAC_CAS_NAME>
N-butyl-2-(1H-indol-3-yl)-N-methylacetamide

> <PUBCHEM_IUPAC_NAME>
N-butyl-2-(1H-indol-3-yl)-N-methylacetamide

> <PUBCHEM_IUPAC_SYSTEMATIC_NAME>
N-butyl-2-(1H-indol-3-yl)-N-methyl-ethanamide

> <PUBCHEM_IUPAC_TRADITIONAL_NAME>
N-butyl-2-(1H-indol-3-yl)-N-methyl-acetamide

> <PUBCHEM_IUPAC_INCHI>
InChI=1S/C15H20N2O/c1-3-4-9-17(2)15(18)10-12-11-16-14-8-6-5-7-13(12)14/h5-8,11,16H,3-4,9-10H2,1-2H3

> <PUBCHEM_IUPAC_INCHIKEY>
AKHFGUWDCWLRKP-UHFFFAOYSA-N

> <PUBCHEM_XLOGP3>
2.6

> <PUBCHEM_EXACT_MASS>
244.157563

> <PUBCHEM_MOLECULAR_FORMULA>
C15H20N2O

> <PUBCHEM_MOLECULAR_WEIGHT>
244.3321

> <PUBCHEM_OPENEYE_CAN_SMILES>
CCCCN(C)C(=O)CC1=CNC2=CC=CC=C21

> <PUBCHEM_OPENEYE_ISO_SMILES>
CCCCN(C)C(=O)CC1=CNC2=CC=CC=C21

> <PUBCHEM_CACTVS_TPSA>
36.1

> <PUBCHEM_MONOISOTOPIC_WEIGHT>
244.157563

> <PUBCHEM_TOTAL_CHARGE>
0

> <PUBCHEM_HEAVY_ATOM_COUNT>
18

> <PUBCHEM_ATOM_DEF_STEREO_COUNT>
0

> <PUBCHEM_ATOM_UDEF_STEREO_COUNT>
0

> <PUBCHEM_BOND_DEF_STEREO_COUNT>
0

> <PUBCHEM_BOND_UDEF_STEREO_COUNT>
0

> <PUBCHEM_ISOTOPIC_ATOM_COUNT>
0

> <PUBCHEM_COMPONENT_COUNT>
1

> <PUBCHEM_CACTVS_TAUTO_COUNT>
1

> <PUBCHEM_COORDINATE_TYPE>
1
5
255

> <PUBCHEM_BONDANNOTATIONS>
11  15  8
14  17  8
15  18  8
17  18  8
3  11  8
3  12  8
6  12  8
6  8  8
8  11  8
8  14  8

$$$$
