36217787
  -OEChem-10191221452D

 22 23  0     1  0  0  0  0  0999 V2000
    3.9030   -2.9515    0.0000 Br  0  0  0  0  0  0  0  0  0  0  0  0
    2.5369    2.4145    0.0000 N   0  3  0  0  0  0  0  0  0  0  0  0
    3.9030    1.0485    0.0000 C   0  0  1  0  0  0  0  0  0  0  0  0
    3.4030    1.9145    0.0000 C   0  0  1  0  0  0  0  0  0  0  0  0
    4.4030    1.9145    0.0000 C   0  0  0  0  0  0  0  0  0  0  0  0
    3.9030    0.0485    0.0000 C   0  0  0  0  0  0  0  0  0  0  0  0
    3.0369   -0.4515    0.0000 C   0  0  0  0  0  0  0  0  0  0  0  0
    4.7690   -0.4515    0.0000 C   0  0  0  0  0  0  0  0  0  0  0  0
    3.0369   -1.4515    0.0000 C   0  0  0  0  0  0  0  0  0  0  0  0
    4.7690   -1.4515    0.0000 C   0  0  0  0  0  0  0  0  0  0  0  0
    3.9030   -1.9515    0.0000 C   0  0  0  0  0  0  0  0  0  0  0  0
    4.5018    0.8881    0.0000 H   0  0  0  0  0  0  0  0  0  0  0  0
    3.5634    2.5134    0.0000 H   0  0  0  0  0  0  0  0  0  0  0  0
    4.9856    1.7025    0.0000 H   0  0  0  0  0  0  0  0  0  0  0  0
    4.5106    2.5251    0.0000 H   0  0  0  0  0  0  0  0  0  0  0  0
    2.0000    2.7245    0.0000 H   0  0  0  0  0  0  0  0  0  0  0  0
    2.8469    2.9515    0.0000 H   0  0  0  0  0  0  0  0  0  0  0  0
    2.2269    1.8776    0.0000 H   0  0  0  0  0  0  0  0  0  0  0  0
    2.5000   -0.1415    0.0000 H   0  0  0  0  0  0  0  0  0  0  0  0
    5.3059   -0.1415    0.0000 H   0  0  0  0  0  0  0  0  0  0  0  0
    2.5000   -1.7615    0.0000 H   0  0  0  0  0  0  0  0  0  0  0  0
    5.3059   -1.7615    0.0000 H   0  0  0  0  0  0  0  0  0  0  0  0
  1 11  1  0  0  0  0
  4  2  1  6  0  0  0
  2 16  1  0  0  0  0
  2 17  1  0  0  0  0
  2 18  1  0  0  0  0
  3  4  1  0  0  0  0
  3  5  1  0  0  0  0
  3  6  1  1  0  0  0
  3 12  1  0  0  0  0
  4  5  1  0  0  0  0
  4 13  1  0  0  0  0
  5 14  1  0  0  0  0
  5 15  1  0  0  0  0
  6  7  2  0  0  0  0
  6  8  1  0  0  0  0
  7  9  1  0  0  0  0
  7 19  1  0  0  0  0
  8 10  2  0  0  0  0
  8 20  1  0  0  0  0
  9 11  2  0  0  0  0
  9 21  1  0  0  0  0
 10 11  1  0  0  0  0
 10 22  1  0  0  0  0
M  CHG  1   2   1
M  END
> <PUBCHEM_COMPOUND_CID>
36217787

> <PUBCHEM_COMPOUND_CANONICALIZED>
1

> <PUBCHEM_CACTVS_COMPLEXITY>
141

> <PUBCHEM_CACTVS_HBOND_ACCEPTOR>
0

> <PUBCHEM_CACTVS_HBOND_DONOR>
1

> <PUBCHEM_CACTVS_ROTATABLE_BOND>
1

> <PUBCHEM_CACTVS_SUBSKEYS>
AAADccByAAAAEAAAAAAAAAAAGAAAAAAAAAAwAAAAAAAAAAABAAAAHABQAAABrSjBGAQwAIBAAACAAiBCAAACAAAgAAQIiIAAAKgIICKAkRGAIAAgkAAIihcQgMAOggAAAAAAAAAEAAAAAAAAAAAAAAAAAA==

> <PUBCHEM_IUPAC_OPENEYE_NAME>
[(1R,2S)-2-(4-bromophenyl)cyclopropyl]ammonium

> <PUBCHEM_IUPAC_CAS_NAME>
[(1R,2S)-2-(4-bromophenyl)cyclopropyl]ammonium

> <PUBCHEM_IUPAC_NAME>
[(1R,2S)-2-(4-bromophenyl)cyclopropyl]azanium

> <PUBCHEM_IUPAC_SYSTEMATIC_NAME>
[(1R,2S)-2-(4-bromophenyl)cyclopropyl]azanium

> <PUBCHEM_IUPAC_TRADITIONAL_NAME>
[(1R,2S)-2-(4-bromophenyl)cyclopropyl]ammonium

> <PUBCHEM_IUPAC_INCHI>
InChI=1S/C9H10BrN/c10-7-3-1-6(2-4-7)8-5-9(8)11/h1-4,8-9H,5,11H2/p+1/t8-,9+/m0/s1

> <PUBCHEM_IUPAC_INCHIKEY>
XRLLHILOPOQXRW-DTWKUNHWSA-O

> <PUBCHEM_XLOGP3>
2.2

> <PUBCHEM_EXACT_MASS>
212.007486

> <PUBCHEM_MOLECULAR_FORMULA>
C9H11BrN+

> <PUBCHEM_MOLECULAR_WEIGHT>
213.09434

> <PUBCHEM_OPENEYE_CAN_SMILES>
C1C(C1[NH3+])C2=CC=C(C=C2)Br

> <PUBCHEM_OPENEYE_ISO_SMILES>
C1[C@H]([C@@H]1[NH3+])C2=CC=C(C=C2)Br

> <PUBCHEM_CACTVS_TPSA>
27.6

> <PUBCHEM_MONOISOTOPIC_WEIGHT>
212.007486

> <PUBCHEM_TOTAL_CHARGE>
1

> <PUBCHEM_HEAVY_ATOM_COUNT>
11

> <PUBCHEM_ATOM_DEF_STEREO_COUNT>
2

> <PUBCHEM_ATOM_UDEF_STEREO_COUNT>
0

> <PUBCHEM_BOND_DEF_STEREO_COUNT>
0

> <PUBCHEM_BOND_UDEF_STEREO_COUNT>
0

> <PUBCHEM_ISOTOPIC_ATOM_COUNT>
0

> <PUBCHEM_COMPONENT_COUNT>
1

> <PUBCHEM_CACTVS_TAUTO_COUNT>
1

> <PUBCHEM_COORDINATE_TYPE>
1
5
255

> <PUBCHEM_BONDANNOTATIONS>
10  11  8
4  2  6
3  6  5
6  7  8
6  8  8
7  9  8
8  10  8
9  11  8

$$$$
36217788
  -OEChem-10191221452D

 21 22  0     1  0  0  0  0  0999 V2000
    2.8660   -2.9930    0.0000 Br  0  0  0  0  0  0  0  0  0  0  0  0
    4.2320    2.3730    0.0000 N   0  0  0  0  0  0  0  0  0  0  0  0
    2.8660    1.0070    0.0000 C   0  0  1  0  0  0  0  0  0  0  0  0
    3.3660    1.8730    0.0000 C   0  0  1  0  0  0  0  0  0  0  0  0
    2.3660    1.8730    0.0000 C   0  0  0  0  0  0  0  0  0  0  0  0
    2.8660    0.0070    0.0000 C   0  0  0  0  0  0  0  0  0  0  0  0
    2.0000   -0.4930    0.0000 C   0  0  0  0  0  0  0  0  0  0  0  0
    3.7320   -0.4930    0.0000 C   0  0  0  0  0  0  0  0  0  0  0  0
    2.0000   -1.4930    0.0000 C   0  0  0  0  0  0  0  0  0  0  0  0
    3.7320   -1.4930    0.0000 C   0  0  0  0  0  0  0  0  0  0  0  0
    2.8660   -1.9930    0.0000 C   0  0  0  0  0  0  0  0  0  0  0  0
    3.4649    0.8465    0.0000 H   0  0  0  0  0  0  0  0  0  0  0  0
    3.8044    1.4346    0.0000 H   0  0  0  0  0  0  0  0  0  0  0  0
    2.2584    2.4836    0.0000 H   0  0  0  0  0  0  0  0  0  0  0  0
    1.7834    1.6610    0.0000 H   0  0  0  0  0  0  0  0  0  0  0  0
    4.2320    2.9930    0.0000 H   0  0  0  0  0  0  0  0  0  0  0  0
    4.7690    2.0630    0.0000 H   0  0  0  0  0  0  0  0  0  0  0  0
    1.4631   -0.1830    0.0000 H   0  0  0  0  0  0  0  0  0  0  0  0
    4.2690   -0.1830    0.0000 H   0  0  0  0  0  0  0  0  0  0  0  0
    1.4631   -1.8030    0.0000 H   0  0  0  0  0  0  0  0  0  0  0  0
    4.2690   -1.8030    0.0000 H   0  0  0  0  0  0  0  0  0  0  0  0
  1 11  1  0  0  0  0
  4  2  1  1  0  0  0
  2 16  1  0  0  0  0
  2 17  1  0  0  0  0
  3  4  1  0  0  0  0
  3  5  1  0  0  0  0
  3  6  1  6  0  0  0
  3 12  1  0  0  0  0
  4  5  1  0  0  0  0
  4 13  1  0  0  0  0
  5 14  1  0  0  0  0
  5 15  1  0  0  0  0
  6  7  2  0  0  0  0
  6  8  1  0  0  0  0
  7  9  1  0  0  0  0
  7 18  1  0  0  0  0
  8 10  2  0  0  0  0
  8 19  1  0  0  0  0
  9 11  2  0  0  0  0
  9 20  1  0  0  0  0
 10 11  1  0  0  0  0
 10 21  1  0  0  0  0
M  END
> <PUBCHEM_COMPOUND_CID>
36217788

> <PUBCHEM_COMPOUND_CANONICALIZED>
1

> <PUBCHEM_CACTVS_COMPLEXITY>
141

> <PUBCHEM_CACTVS_HBOND_ACCEPTOR>
1

> <PUBCHEM_CACTVS_HBOND_DONOR>
1

> <PUBCHEM_CACTVS_ROTATABLE_BOND>
1

> <PUBCHEM_CACTVS_SUBSKEYS>
AAADccByAAAAEAAAAAAAAAAAGAAAAAAAAAAwAAAAAAAAAAABAAAAHABQAAABrSjBGAQwAIBAAACAAiBCAAACAAAgAAQIiIAAAKgIICKAkRGAIAAgkAAIihcQgMAOggAAAAAAAAAEAAAAAAAAAAAAAAAAAA==

> <PUBCHEM_IUPAC_OPENEYE_NAME>
(1R,2S)-2-(4-bromophenyl)cyclopropanamine

> <PUBCHEM_IUPAC_CAS_NAME>
(1R,2S)-2-(4-bromophenyl)-1-cyclopropanamine

> <PUBCHEM_IUPAC_NAME>
(1R,2S)-2-(4-bromophenyl)cyclopropan-1-amine

> <PUBCHEM_IUPAC_SYSTEMATIC_NAME>
(1R,2S)-2-(4-bromophenyl)cyclopropan-1-amine

> <PUBCHEM_IUPAC_TRADITIONAL_NAME>
[(1R,2S)-2-(4-bromophenyl)cyclopropyl]amine

> <PUBCHEM_IUPAC_INCHI>
InChI=1S/C9H10BrN/c10-7-3-1-6(2-4-7)8-5-9(8)11/h1-4,8-9H,5,11H2/t8-,9+/m0/s1

> <PUBCHEM_IUPAC_INCHIKEY>
XRLLHILOPOQXRW-DTWKUNHWSA-N

> <PUBCHEM_XLOGP3>
2.2

> <PUBCHEM_EXACT_MASS>
210.999661

> <PUBCHEM_MOLECULAR_FORMULA>
C9H10BrN

> <PUBCHEM_MOLECULAR_WEIGHT>
212.0864

> <PUBCHEM_OPENEYE_CAN_SMILES>
C1C(C1N)C2=CC=C(C=C2)Br

> <PUBCHEM_OPENEYE_ISO_SMILES>
C1[C@H]([C@@H]1N)C2=CC=C(C=C2)Br

> <PUBCHEM_CACTVS_TPSA>
26

> <PUBCHEM_MONOISOTOPIC_WEIGHT>
210.999661

> <PUBCHEM_TOTAL_CHARGE>
0

> <PUBCHEM_HEAVY_ATOM_COUNT>
11

> <PUBCHEM_ATOM_DEF_STEREO_COUNT>
2

> <PUBCHEM_ATOM_UDEF_STEREO_COUNT>
0

> <PUBCHEM_BOND_DEF_STEREO_COUNT>
0

> <PUBCHEM_BOND_UDEF_STEREO_COUNT>
0

> <PUBCHEM_ISOTOPIC_ATOM_COUNT>
0

> <PUBCHEM_COMPONENT_COUNT>
1

> <PUBCHEM_CACTVS_TAUTO_COUNT>
1

> <PUBCHEM_COORDINATE_TYPE>
1
5
255

> <PUBCHEM_BONDANNOTATIONS>
10  11  8
4  2  5
3  6  6
6  7  8
6  8  8
7  9  8
8  10  8
9  11  8

$$$$
36217790
  -OEChem-10191221452D

 26 27  0     1  0  0  0  0  0999 V2000
    3.9030   -2.7015    0.0000 O   0  0  0  0  0  0  0  0  0  0  0  0
    2.5369    2.6645    0.0000 N   0  3  0  0  0  0  0  0  0  0  0  0
    3.9030    1.2985    0.0000 C   0  0  1  0  0  0  0  0  0  0  0  0
    3.4030    2.1645    0.0000 C   0  0  1  0  0  0  0  0  0  0  0  0
    4.4030    2.1645    0.0000 C   0  0  0  0  0  0  0  0  0  0  0  0
    3.9030    0.2985    0.0000 C   0  0  0  0  0  0  0  0  0  0  0  0
    3.0369   -0.2015    0.0000 C   0  0  0  0  0  0  0  0  0  0  0  0
    4.7690   -0.2015    0.0000 C   0  0  0  0  0  0  0  0  0  0  0  0
    3.0369   -1.2015    0.0000 C   0  0  0  0  0  0  0  0  0  0  0  0
    4.7690   -1.2015    0.0000 C   0  0  0  0  0  0  0  0  0  0  0  0
    3.9030   -1.7015    0.0000 C   0  0  0  0  0  0  0  0  0  0  0  0
    4.7690   -3.2015    0.0000 C   0  0  0  0  0  0  0  0  0  0  0  0
    4.5018    1.1380    0.0000 H   0  0  0  0  0  0  0  0  0  0  0  0
    3.5634    2.7634    0.0000 H   0  0  0  0  0  0  0  0  0  0  0  0
    4.9856    1.9525    0.0000 H   0  0  0  0  0  0  0  0  0  0  0  0
    4.5106    2.7751    0.0000 H   0  0  0  0  0  0  0  0  0  0  0  0
    2.0000    2.9745    0.0000 H   0  0  0  0  0  0  0  0  0  0  0  0
    2.8469    3.2015    0.0000 H   0  0  0  0  0  0  0  0  0  0  0  0
    2.2269    2.1276    0.0000 H   0  0  0  0  0  0  0  0  0  0  0  0
    2.5000    0.1085    0.0000 H   0  0  0  0  0  0  0  0  0  0  0  0
    5.3059    0.1085    0.0000 H   0  0  0  0  0  0  0  0  0  0  0  0
    2.5000   -1.5115    0.0000 H   0  0  0  0  0  0  0  0  0  0  0  0
    5.3059   -1.5115    0.0000 H   0  0  0  0  0  0  0  0  0  0  0  0
    4.4590   -3.7384    0.0000 H   0  0  0  0  0  0  0  0  0  0  0  0
    5.3059   -3.5115    0.0000 H   0  0  0  0  0  0  0  0  0  0  0  0
    5.0790   -2.6645    0.0000 H   0  0  0  0  0  0  0  0  0  0  0  0
  1 11  1  0  0  0  0
  1 12  1  0  0  0  0
  4  2  1  6  0  0  0
  2 17  1  0  0  0  0
  2 18  1  0  0  0  0
  2 19  1  0  0  0  0
  3  4  1  0  0  0  0
  3  5  1  0  0  0  0
  3  6  1  1  0  0  0
  3 13  1  0  0  0  0
  4  5  1  0  0  0  0
  4 14  1  0  0  0  0
  5 15  1  0  0  0  0
  5 16  1  0  0  0  0
  6  7  2  0  0  0  0
  6  8  1  0  0  0  0
  7  9  1  0  0  0  0
  7 20  1  0  0  0  0
  8 10  2  0  0  0  0
  8 21  1  0  0  0  0
  9 11  2  0  0  0  0
  9 22  1  0  0  0  0
 10 11  1  0  0  0  0
 10 23  1  0  0  0  0
 12 24  1  0  0  0  0
 12 25  1  0  0  0  0
 12 26  1  0  0  0  0
M  CHG  1   2   1
M  END
> <PUBCHEM_COMPOUND_CID>
36217790

> <PUBCHEM_COMPOUND_CANONICALIZED>
1

> <PUBCHEM_CACTVS_COMPLEXITY>
152

> <PUBCHEM_CACTVS_HBOND_ACCEPTOR>
1

> <PUBCHEM_CACTVS_HBOND_DONOR>
1

> <PUBCHEM_CACTVS_ROTATABLE_BOND>
2

> <PUBCHEM_CACTVS_SUBSKEYS>
AAADccByIAAAAAAAAAAAAAAAGAAAAAAAAAAwAAAAAAAAAAABAAAAHgAQAAAADSzBmAYyBoBABACAAiBCAAACCAAgIAAIiIAGCIgMJiKEsRuAMCAk0BEIqAeQwPAOoAAAAAAAAABAAAAAAAAAAAAAAAAAAA==

> <PUBCHEM_IUPAC_OPENEYE_NAME>
[(1R,2S)-2-(4-methoxyphenyl)cyclopropyl]ammonium

> <PUBCHEM_IUPAC_CAS_NAME>
[(1R,2S)-2-(4-methoxyphenyl)cyclopropyl]ammonium

> <PUBCHEM_IUPAC_NAME>
[(1R,2S)-2-(4-methoxyphenyl)cyclopropyl]azanium

> <PUBCHEM_IUPAC_SYSTEMATIC_NAME>
[(1R,2S)-2-(4-methoxyphenyl)cyclopropyl]azanium

> <PUBCHEM_IUPAC_TRADITIONAL_NAME>
[(1R,2S)-2-(4-methoxyphenyl)cyclopropyl]ammonium

> <PUBCHEM_IUPAC_INCHI>
InChI=1S/C10H13NO/c1-12-8-4-2-7(3-5-8)9-6-10(9)11/h2-5,9-10H,6,11H2,1H3/p+1/t9-,10+/m0/s1

> <PUBCHEM_IUPAC_INCHIKEY>
SCLDJNREJBDLHE-VHSXEESVSA-O

> <PUBCHEM_XLOGP3>
1.5

> <PUBCHEM_EXACT_MASS>
164.107539

> <PUBCHEM_MOLECULAR_FORMULA>
C10H14NO+

> <PUBCHEM_MOLECULAR_WEIGHT>
164.22426

> <PUBCHEM_OPENEYE_CAN_SMILES>
COC1=CC=C(C=C1)C2CC2[NH3+]

> <PUBCHEM_OPENEYE_ISO_SMILES>
COC1=CC=C(C=C1)[C@@H]2C[C@H]2[NH3+]

> <PUBCHEM_CACTVS_TPSA>
36.9

> <PUBCHEM_MONOISOTOPIC_WEIGHT>
164.107539

> <PUBCHEM_TOTAL_CHARGE>
1

> <PUBCHEM_HEAVY_ATOM_COUNT>
12

> <PUBCHEM_ATOM_DEF_STEREO_COUNT>
2

> <PUBCHEM_ATOM_UDEF_STEREO_COUNT>
0

> <PUBCHEM_BOND_DEF_STEREO_COUNT>
0

> <PUBCHEM_BOND_UDEF_STEREO_COUNT>
0

> <PUBCHEM_ISOTOPIC_ATOM_COUNT>
0

> <PUBCHEM_COMPONENT_COUNT>
1

> <PUBCHEM_CACTVS_TAUTO_COUNT>
1

> <PUBCHEM_COORDINATE_TYPE>
1
5
255

> <PUBCHEM_BONDANNOTATIONS>
10  11  8
4  2  6
3  6  5
6  7  8
6  8  8
7  9  8
8  10  8
9  11  8

$$$$
