30480725
  -OEChem-11301217422D

 52 53  0     0  0  0  0  0  0999 V2000
    7.1962    1.0987    0.0000 O   0  0  0  0  0  0  0  0  0  0  0  0
    3.7320    0.0987    0.0000 N   0  3  0  0  0  0  0  0  0  0  0  0
    6.3301   -0.4013    0.0000 N   0  0  0  0  0  0  0  0  0  0  0  0
    2.8660    0.5987    0.0000 C   0  0  0  0  0  0  0  0  0  0  0  0
    3.2320   -0.7673    0.0000 C   0  0  0  0  0  0  0  0  0  0  0  0
    4.5981   -0.4013    0.0000 C   0  0  0  0  0  0  0  0  0  0  0  0
    5.4641    0.0987    0.0000 C   0  0  0  0  0  0  0  0  0  0  0  0
    2.0000    0.0987    0.0000 C   0  0  0  0  0  0  0  0  0  0  0  0
    2.8660    1.5987    0.0000 C   0  0  0  0  0  0  0  0  0  0  0  0
    3.7320   -1.6334    0.0000 C   0  0  0  0  0  0  0  0  0  0  0  0
    2.2320   -0.7673    0.0000 C   0  0  0  0  0  0  0  0  0  0  0  0
    7.1962    0.0987    0.0000 C   0  0  0  0  0  0  0  0  0  0  0  0
    8.0622   -0.4013    0.0000 C   0  0  0  0  0  0  0  0  0  0  0  0
    8.9282    0.0987    0.0000 C   0  0  0  0  0  0  0  0  0  0  0  0
    9.7942   -0.4013    0.0000 C   0  0  0  0  0  0  0  0  0  0  0  0
   10.6603    0.0987    0.0000 C   0  0  0  0  0  0  0  0  0  0  0  0
    8.9282    1.0987    0.0000 C   0  0  0  0  0  0  0  0  0  0  0  0
   10.6603    1.0987    0.0000 C   0  0  0  0  0  0  0  0  0  0  0  0
    9.7942    1.5987    0.0000 C   0  0  0  0  0  0  0  0  0  0  0  0
   11.5542   -0.4360    0.0000 C   0  0  0  0  0  0  0  0  0  0  0  0
   11.5542    1.6334    0.0000 C   0  0  0  0  0  0  0  0  0  0  0  0
   12.4603    0.0779    0.0000 C   0  0  0  0  0  0  0  0  0  0  0  0
   12.4603    1.1195    0.0000 C   0  0  0  0  0  0  0  0  0  0  0  0
    4.0420    0.6356    0.0000 H   0  0  0  0  0  0  0  0  0  0  0  0
    2.8660   -0.0213    0.0000 H   0  0  0  0  0  0  0  0  0  0  0  0
    3.8520   -0.7673    0.0000 H   0  0  0  0  0  0  0  0  0  0  0  0
    4.1996   -0.8763    0.0000 H   0  0  0  0  0  0  0  0  0  0  0  0
    4.9966   -0.8763    0.0000 H   0  0  0  0  0  0  0  0  0  0  0  0
    5.8626    0.5736    0.0000 H   0  0  0  0  0  0  0  0  0  0  0  0
    5.0656    0.5736    0.0000 H   0  0  0  0  0  0  0  0  0  0  0  0
    2.2320   -0.1473    0.0000 H   0  0  0  0  0  0  0  0  0  0  0  0
    1.6120   -0.7673    0.0000 H   0  0  0  0  0  0  0  0  0  0  0  0
    2.2320   -1.3873    0.0000 H   0  0  0  0  0  0  0  0  0  0  0  0
    3.1951   -1.9434    0.0000 H   0  0  0  0  0  0  0  0  0  0  0  0
    4.0420   -2.1703    0.0000 H   0  0  0  0  0  0  0  0  0  0  0  0
    4.2690   -1.3234    0.0000 H   0  0  0  0  0  0  0  0  0  0  0  0
    3.4860    1.5987    0.0000 H   0  0  0  0  0  0  0  0  0  0  0  0
    2.8660    2.2187    0.0000 H   0  0  0  0  0  0  0  0  0  0  0  0
    2.2460    1.5987    0.0000 H   0  0  0  0  0  0  0  0  0  0  0  0
    1.6900    0.6356    0.0000 H   0  0  0  0  0  0  0  0  0  0  0  0
    1.4631   -0.2113    0.0000 H   0  0  0  0  0  0  0  0  0  0  0  0
    2.3100   -0.4382    0.0000 H   0  0  0  0  0  0  0  0  0  0  0  0
    6.3301   -1.0213    0.0000 H   0  0  0  0  0  0  0  0  0  0  0  0
    7.6636   -0.8763    0.0000 H   0  0  0  0  0  0  0  0  0  0  0  0
    8.4607   -0.8763    0.0000 H   0  0  0  0  0  0  0  0  0  0  0  0
    9.7942   -1.0213    0.0000 H   0  0  0  0  0  0  0  0  0  0  0  0
    8.3913    1.4087    0.0000 H   0  0  0  0  0  0  0  0  0  0  0  0
    9.7942    2.2187    0.0000 H   0  0  0  0  0  0  0  0  0  0  0  0
   11.5470   -1.0559    0.0000 H   0  0  0  0  0  0  0  0  0  0  0  0
   11.5470    2.2533    0.0000 H   0  0  0  0  0  0  0  0  0  0  0  0
   12.9960   -0.2342    0.0000 H   0  0  0  0  0  0  0  0  0  0  0  0
   12.9960    1.4316    0.0000 H   0  0  0  0  0  0  0  0  0  0  0  0
  1 12  2  0  0  0  0
  2  4  1  0  0  0  0
  2  5  1  0  0  0  0
  2  6  1  0  0  0  0
  2 24  1  0  0  0  0
  3  7  1  0  0  0  0
  3 12  1  0  0  0  0
  3 43  1  0  0  0  0
  4  8  1  0  0  0  0
  4  9  1  0  0  0  0
  4 25  1  0  0  0  0
  5 10  1  0  0  0  0
  5 11  1  0  0  0  0
  5 26  1  0  0  0  0
  6  7  1  0  0  0  0
  6 27  1  0  0  0  0
  6 28  1  0  0  0  0
  7 29  1  0  0  0  0
  7 30  1  0  0  0  0
  8 40  1  0  0  0  0
  8 41  1  0  0  0  0
  8 42  1  0  0  0  0
  9 37  1  0  0  0  0
  9 38  1  0  0  0  0
  9 39  1  0  0  0  0
 10 34  1  0  0  0  0
 10 35  1  0  0  0  0
 10 36  1  0  0  0  0
 11 31  1  0  0  0  0
 11 32  1  0  0  0  0
 11 33  1  0  0  0  0
 12 13  1  0  0  0  0
 13 14  1  0  0  0  0
 13 44  1  0  0  0  0
 13 45  1  0  0  0  0
 14 15  2  0  0  0  0
 14 17  1  0  0  0  0
 15 16  1  0  0  0  0
 15 46  1  0  0  0  0
 16 18  1  0  0  0  0
 16 20  2  0  0  0  0
 17 19  2  0  0  0  0
 17 47  1  0  0  0  0
 18 19  1  0  0  0  0
 18 21  2  0  0  0  0
 19 48  1  0  0  0  0
 20 22  1  0  0  0  0
 20 49  1  0  0  0  0
 21 23  1  0  0  0  0
 21 50  1  0  0  0  0
 22 23  2  0  0  0  0
 22 51  1  0  0  0  0
 23 52  1  0  0  0  0
M  CHG  1   2   1
M  END
> <PUBCHEM_COMPOUND_CID>
30480725

> <PUBCHEM_COMPOUND_CANONICALIZED>
1

> <PUBCHEM_CACTVS_COMPLEXITY>
359

> <PUBCHEM_CACTVS_HBOND_ACCEPTOR>
1

> <PUBCHEM_CACTVS_HBOND_DONOR>
2

> <PUBCHEM_CACTVS_ROTATABLE_BOND>
7

> <PUBCHEM_CACTVS_SUBSKEYS>
AAADceB7IAAAAAAAAAAAAAAAAAAAAAAAAAAwYAAAAAAAAADBUAAAHgAQAAAADCjBmAQyAMPAAACIAiFSEAACAAAgAAAIiIEIAIgIYDKAlRGUIAAglgCIiAcYiMCOwAACAAAQAACAAAQAACAAAAAAAAAAAA==

> <PUBCHEM_IUPAC_OPENEYE_NAME>
diisopropyl-[2-[[2-(2-naphthyl)acetyl]amino]ethyl]ammonium

> <PUBCHEM_IUPAC_CAS_NAME>
2-[[2-(2-naphthalenyl)-1-oxoethyl]amino]ethyl-di(propan-2-yl)ammonium

> <PUBCHEM_IUPAC_NAME>
2-[(2-naphthalen-2-ylacetyl)amino]ethyl-di(propan-2-yl)azanium

> <PUBCHEM_IUPAC_SYSTEMATIC_NAME>
2-(2-naphthalen-2-ylethanoylamino)ethyl-di(propan-2-yl)azanium

> <PUBCHEM_IUPAC_TRADITIONAL_NAME>
diisopropyl-[2-[[2-(2-naphthyl)acetyl]amino]ethyl]ammonium

> <PUBCHEM_IUPAC_INCHI>
InChI=1S/C20H28N2O/c1-15(2)22(16(3)4)12-11-21-20(23)14-17-9-10-18-7-5-6-8-19(18)13-17/h5-10,13,15-16H,11-12,14H2,1-4H3,(H,21,23)/p+1

> <PUBCHEM_IUPAC_INCHIKEY>
LYKTYVSTSFNOGE-UHFFFAOYSA-O

> <PUBCHEM_XLOGP3>
4.2

> <PUBCHEM_EXACT_MASS>
313.227989

> <PUBCHEM_MOLECULAR_FORMULA>
C20H29N2O+

> <PUBCHEM_MOLECULAR_WEIGHT>
313.45706

> <PUBCHEM_OPENEYE_CAN_SMILES>
CC(C)[NH+](CCNC(=O)CC1=CC2=CC=CC=C2C=C1)C(C)C

> <PUBCHEM_OPENEYE_ISO_SMILES>
CC(C)[NH+](CCNC(=O)CC1=CC2=CC=CC=C2C=C1)C(C)C

> <PUBCHEM_CACTVS_TPSA>
33.5

> <PUBCHEM_MONOISOTOPIC_WEIGHT>
313.227989

> <PUBCHEM_TOTAL_CHARGE>
1

> <PUBCHEM_HEAVY_ATOM_COUNT>
23

> <PUBCHEM_ATOM_DEF_STEREO_COUNT>
0

> <PUBCHEM_ATOM_UDEF_STEREO_COUNT>
0

> <PUBCHEM_BOND_DEF_STEREO_COUNT>
0

> <PUBCHEM_BOND_UDEF_STEREO_COUNT>
0

> <PUBCHEM_ISOTOPIC_ATOM_COUNT>
0

> <PUBCHEM_COMPONENT_COUNT>
1

> <PUBCHEM_CACTVS_TAUTO_COUNT>
2

> <PUBCHEM_COORDINATE_TYPE>
1
5
255

> <PUBCHEM_BONDANNOTATIONS>
14  15  8
14  17  8
15  16  8
16  18  8
16  20  8
17  19  8
18  19  8
18  21  8
20  22  8
21  23  8
22  23  8

$$$$
30480761
  -OEChem-11301217422D

 56 57  0     0  0  0  0  0  0999 V2000
    7.9244   -0.4681    0.0000 O   0  0  0  0  0  0  0  0  0  0  0  0
    9.8349    2.5897    0.0000 N   0  3  0  0  0  0  0  0  0  0  0  0
    7.5673    1.2267    0.0000 N   0  0  0  0  0  0  0  0  0  0  0  0
    4.6783   -3.6467    0.0000 N   0  0  0  0  0  0  0  0  0  0  0  0
   10.8134    2.7959    0.0000 C   0  0  0  0  0  0  0  0  0  0  0  0
    9.6287    3.5682    0.0000 C   0  0  0  0  0  0  0  0  0  0  0  0
    8.8564    2.3835    0.0000 C   0  0  0  0  0  0  0  0  0  0  0  0
    8.5458    1.4330    0.0000 C   0  0  0  0  0  0  0  0  0  0  0  0
   11.1241    3.7464    0.0000 C   0  0  0  0  0  0  0  0  0  0  0  0
   11.4813    2.0516    0.0000 C   0  0  0  0  0  0  0  0  0  0  0  0
    8.6782    3.8789    0.0000 C   0  0  0  0  0  0  0  0  0  0  0  0
   10.3730    4.2360    0.0000 C   0  0  0  0  0  0  0  0  0  0  0  0
    7.2566    0.2762    0.0000 C   0  0  0  0  0  0  0  0  0  0  0  0
    6.2781    0.0700    0.0000 C   0  0  0  0  0  0  0  0  0  0  0  0
    5.9674   -0.8805    0.0000 C   0  0  0  0  0  0  0  0  0  0  0  0
    4.9889   -1.0867    0.0000 C   0  0  0  0  0  0  0  0  0  0  0  0
    4.6783   -2.0373    0.0000 C   0  0  0  0  0  0  0  0  0  0  0  0
    3.7320   -2.3420    0.0000 C   0  0  0  0  0  0  0  0  0  0  0  0
    3.7320   -3.3420    0.0000 C   0  0  0  0  0  0  0  0  0  0  0  0
    5.2619   -2.8420    0.0000 C   0  0  0  0  0  0  0  0  0  0  0  0
    2.8660   -1.8420    0.0000 C   0  0  0  0  0  0  0  0  0  0  0  0
    2.8660   -3.8420    0.0000 C   0  0  0  0  0  0  0  0  0  0  0  0
    2.0000   -2.3420    0.0000 C   0  0  0  0  0  0  0  0  0  0  0  0
    2.0000   -3.3420    0.0000 C   0  0  0  0  0  0  0  0  0  0  0  0
    9.9628    1.9830    0.0000 H   0  0  0  0  0  0  0  0  0  0  0  0
   10.3994    3.2574    0.0000 H   0  0  0  0  0  0  0  0  0  0  0  0
    9.1673    3.1541    0.0000 H   0  0  0  0  0  0  0  0  0  0  0  0
    8.8359    3.0031    0.0000 H   0  0  0  0  0  0  0  0  0  0  0  0
    8.2426    2.4708    0.0000 H   0  0  0  0  0  0  0  0  0  0  0  0
    8.5663    0.8133    0.0000 H   0  0  0  0  0  0  0  0  0  0  0  0
    9.1596    1.3456    0.0000 H   0  0  0  0  0  0  0  0  0  0  0  0
   10.7871    3.7746    0.0000 H   0  0  0  0  0  0  0  0  0  0  0  0
   11.7134    3.5538    0.0000 H   0  0  0  0  0  0  0  0  0  0  0  0
   11.3167    4.3358    0.0000 H   0  0  0  0  0  0  0  0  0  0  0  0
   10.5348    3.9390    0.0000 H   0  0  0  0  0  0  0  0  0  0  0  0
   11.0198    1.6376    0.0000 H   0  0  0  0  0  0  0  0  0  0  0  0
   11.8954    1.5902    0.0000 H   0  0  0  0  0  0  0  0  0  0  0  0
   11.9428    2.4657    0.0000 H   0  0  0  0  0  0  0  0  0  0  0  0
    8.8708    4.4682    0.0000 H   0  0  0  0  0  0  0  0  0  0  0  0
    8.0889    4.0715    0.0000 H   0  0  0  0  0  0  0  0  0  0  0  0
    8.4856    3.2895    0.0000 H   0  0  0  0  0  0  0  0  0  0  0  0
   10.8345    4.6501    0.0000 H   0  0  0  0  0  0  0  0  0  0  0  0
    9.9590    4.6975    0.0000 H   0  0  0  0  0  0  0  0  0  0  0  0
    7.1532    1.6882    0.0000 H   0  0  0  0  0  0  0  0  0  0  0  0
    6.2575    0.6897    0.0000 H   0  0  0  0  0  0  0  0  0  0  0  0
    5.6643    0.1574    0.0000 H   0  0  0  0  0  0  0  0  0  0  0  0
    5.9880   -1.5002    0.0000 H   0  0  0  0  0  0  0  0  0  0  0  0
    6.5812   -0.9679    0.0000 H   0  0  0  0  0  0  0  0  0  0  0  0
    4.9684   -0.4671    0.0000 H   0  0  0  0  0  0  0  0  0  0  0  0
    4.3751   -0.9994    0.0000 H   0  0  0  0  0  0  0  0  0  0  0  0
    5.8819   -2.8420    0.0000 H   0  0  0  0  0  0  0  0  0  0  0  0
    4.8709   -4.2360    0.0000 H   0  0  0  0  0  0  0  0  0  0  0  0
    2.8660   -1.2220    0.0000 H   0  0  0  0  0  0  0  0  0  0  0  0
    2.8660   -4.4620    0.0000 H   0  0  0  0  0  0  0  0  0  0  0  0
    1.4631   -2.0320    0.0000 H   0  0  0  0  0  0  0  0  0  0  0  0
    1.4631   -3.6520    0.0000 H   0  0  0  0  0  0  0  0  0  0  0  0
  1 13  2  0  0  0  0
  2  5  1  0  0  0  0
  2  6  1  0  0  0  0
  2  7  1  0  0  0  0
  2 25  1  0  0  0  0
  3  8  1  0  0  0  0
  3 13  1  0  0  0  0
  3 44  1  0  0  0  0
  4 19  1  0  0  0  0
  4 20  1  0  0  0  0
  4 52  1  0  0  0  0
  5  9  1  0  0  0  0
  5 10  1  0  0  0  0
  5 26  1  0  0  0  0
  6 11  1  0  0  0  0
  6 12  1  0  0  0  0
  6 27  1  0  0  0  0
  7  8  1  0  0  0  0
  7 28  1  0  0  0  0
  7 29  1  0  0  0  0
  8 30  1  0  0  0  0
  8 31  1  0  0  0  0
  9 33  1  0  0  0  0
  9 34  1  0  0  0  0
  9 35  1  0  0  0  0
 10 36  1  0  0  0  0
 10 37  1  0  0  0  0
 10 38  1  0  0  0  0
 11 39  1  0  0  0  0
 11 40  1  0  0  0  0
 11 41  1  0  0  0  0
 12 32  1  0  0  0  0
 12 42  1  0  0  0  0
 12 43  1  0  0  0  0
 13 14  1  0  0  0  0
 14 15  1  0  0  0  0
 14 45  1  0  0  0  0
 14 46  1  0  0  0  0
 15 16  1  0  0  0  0
 15 47  1  0  0  0  0
 15 48  1  0  0  0  0
 16 17  1  0  0  0  0
 16 49  1  0  0  0  0
 16 50  1  0  0  0  0
 17 18  1  0  0  0  0
 17 20  2  0  0  0  0
 18 19  1  0  0  0  0
 18 21  2  0  0  0  0
 19 22  2  0  0  0  0
 20 51  1  0  0  0  0
 21 23  1  0  0  0  0
 21 53  1  0  0  0  0
 22 24  1  0  0  0  0
 22 54  1  0  0  0  0
 23 24  2  0  0  0  0
 23 55  1  0  0  0  0
 24 56  1  0  0  0  0
M  CHG  1   2   1
M  END
> <PUBCHEM_COMPOUND_CID>
30480761

> <PUBCHEM_COMPOUND_CANONICALIZED>
1

> <PUBCHEM_CACTVS_COMPLEXITY>
375

> <PUBCHEM_CACTVS_HBOND_ACCEPTOR>
1

> <PUBCHEM_CACTVS_HBOND_DONOR>
3

> <PUBCHEM_CACTVS_ROTATABLE_BOND>
9

> <PUBCHEM_CACTVS_SUBSKEYS>
AAADcfB7IAAAAAAAAAAAAAAAAAAAAWAAAAAwAAAAAAAAAFgB8AAAHgAQAAAADCjBngQ+wPPJkACoAzV3VACCgCAxAiAI2aE4ZJgIYPLAkZGUIAhglgDIyAcYiMCOgAAAAAACAAAAAAAAAAQAAAAAAAAAAA==

> <PUBCHEM_IUPAC_OPENEYE_NAME>
2-[4-(1H-indol-3-yl)butanoylamino]ethyl-diisopropyl-ammonium

> <PUBCHEM_IUPAC_CAS_NAME>
2-[[4-(1H-indol-3-yl)-1-oxobutyl]amino]ethyl-di(propan-2-yl)ammonium

> <PUBCHEM_IUPAC_NAME>
2-[4-(1H-indol-3-yl)butanoylamino]ethyl-di(propan-2-yl)azanium

> <PUBCHEM_IUPAC_SYSTEMATIC_NAME>
2-[4-(1H-indol-3-yl)butanoylamino]ethyl-di(propan-2-yl)azanium

> <PUBCHEM_IUPAC_TRADITIONAL_NAME>
2-[4-(1H-indol-3-yl)butanoylamino]ethyl-diisopropyl-ammonium

> <PUBCHEM_IUPAC_INCHI>
InChI=1S/C20H31N3O/c1-15(2)23(16(3)4)13-12-21-20(24)11-7-8-17-14-22-19-10-6-5-9-18(17)19/h5-6,9-10,14-16,22H,7-8,11-13H2,1-4H3,(H,21,24)/p+1

> <PUBCHEM_IUPAC_INCHIKEY>
YGGCJVZCADYMQI-UHFFFAOYSA-O

> <PUBCHEM_XLOGP3>
3.7

> <PUBCHEM_EXACT_MASS>
330.254538

> <PUBCHEM_MOLECULAR_FORMULA>
C20H32N3O+

> <PUBCHEM_MOLECULAR_WEIGHT>
330.48758

> <PUBCHEM_OPENEYE_CAN_SMILES>
CC(C)[NH+](CCNC(=O)CCCC1=CNC2=CC=CC=C21)C(C)C

> <PUBCHEM_OPENEYE_ISO_SMILES>
CC(C)[NH+](CCNC(=O)CCCC1=CNC2=CC=CC=C21)C(C)C

> <PUBCHEM_CACTVS_TPSA>
49.3

> <PUBCHEM_MONOISOTOPIC_WEIGHT>
330.254538

> <PUBCHEM_TOTAL_CHARGE>
1

> <PUBCHEM_HEAVY_ATOM_COUNT>
24

> <PUBCHEM_ATOM_DEF_STEREO_COUNT>
0

> <PUBCHEM_ATOM_UDEF_STEREO_COUNT>
0

> <PUBCHEM_BOND_DEF_STEREO_COUNT>
0

> <PUBCHEM_BOND_UDEF_STEREO_COUNT>
0

> <PUBCHEM_ISOTOPIC_ATOM_COUNT>
0

> <PUBCHEM_COMPONENT_COUNT>
1

> <PUBCHEM_CACTVS_TAUTO_COUNT>
2

> <PUBCHEM_COORDINATE_TYPE>
1
5
255

> <PUBCHEM_BONDANNOTATIONS>
17  18  8
17  20  8
18  19  8
18  21  8
19  22  8
21  23  8
22  24  8
23  24  8
4  19  8
4  20  8

$$$$
30480769
  -OEChem-11301217422D

 43 43  0     0  0  0  0  0  0999 V2000
    2.0000   -1.7500    0.0000 I   0  0  0  0  0  0  0  0  0  0  0  0
    2.8660   -0.2500    0.0000 O   0  0  0  0  0  0  0  0  0  0  0  0
    5.4641    2.2500    0.0000 N   0  3  0  0  0  0  0  0  0  0  0  0
    4.5981   -0.2500    0.0000 N   0  0  0  0  0  0  0  0  0  0  0  0
    5.4641    3.2500    0.0000 C   0  0  0  0  0  0  0  0  0  0  0  0
    6.4641    2.2500    0.0000 C   0  0  0  0  0  0  0  0  0  0  0  0
    5.4641    1.2500    0.0000 C   0  0  0  0  0  0  0  0  0  0  0  0
    4.5981    0.7500    0.0000 C   0  0  0  0  0  0  0  0  0  0  0  0
    6.3301    3.7500    0.0000 C   0  0  0  0  0  0  0  0  0  0  0  0
    4.5981    3.7500    0.0000 C   0  0  0  0  0  0  0  0  0  0  0  0
    6.9641    1.3840    0.0000 C   0  0  0  0  0  0  0  0  0  0  0  0
    6.9641    3.1160    0.0000 C   0  0  0  0  0  0  0  0  0  0  0  0
    3.7320   -0.7500    0.0000 C   0  0  0  0  0  0  0  0  0  0  0  0
    3.7320   -1.7500    0.0000 C   0  0  0  0  0  0  0  0  0  0  0  0
    2.8660   -2.2500    0.0000 C   0  0  0  0  0  0  0  0  0  0  0  0
    4.5981   -2.2500    0.0000 C   0  0  0  0  0  0  0  0  0  0  0  0
    2.8660   -3.2500    0.0000 C   0  0  0  0  0  0  0  0  0  0  0  0
    4.5981   -3.2500    0.0000 C   0  0  0  0  0  0  0  0  0  0  0  0
    3.7320   -3.7500    0.0000 C   0  0  0  0  0  0  0  0  0  0  0  0
    4.8441    2.2500    0.0000 H   0  0  0  0  0  0  0  0  0  0  0  0
    6.1541    2.7869    0.0000 H   0  0  0  0  0  0  0  0  0  0  0  0
    6.0010    2.9400    0.0000 H   0  0  0  0  0  0  0  0  0  0  0  0
    5.6762    0.6674    0.0000 H   0  0  0  0  0  0  0  0  0  0  0  0
    6.0747    1.3577    0.0000 H   0  0  0  0  0  0  0  0  0  0  0  0
    4.3860    1.3326    0.0000 H   0  0  0  0  0  0  0  0  0  0  0  0
    3.9875    0.6423    0.0000 H   0  0  0  0  0  0  0  0  0  0  0  0
    6.6401    3.2131    0.0000 H   0  0  0  0  0  0  0  0  0  0  0  0
    7.5010    2.8060    0.0000 H   0  0  0  0  0  0  0  0  0  0  0  0
    7.2741    3.6530    0.0000 H   0  0  0  0  0  0  0  0  0  0  0  0
    6.4272    3.4260    0.0000 H   0  0  0  0  0  0  0  0  0  0  0  0
    6.4272    1.0740    0.0000 H   0  0  0  0  0  0  0  0  0  0  0  0
    7.2741    0.8470    0.0000 H   0  0  0  0  0  0  0  0  0  0  0  0
    7.5010    1.6940    0.0000 H   0  0  0  0  0  0  0  0  0  0  0  0
    4.9081    4.2869    0.0000 H   0  0  0  0  0  0  0  0  0  0  0  0
    4.0611    4.0600    0.0000 H   0  0  0  0  0  0  0  0  0  0  0  0
    4.2881    3.2131    0.0000 H   0  0  0  0  0  0  0  0  0  0  0  0
    6.8671    4.0600    0.0000 H   0  0  0  0  0  0  0  0  0  0  0  0
    6.0201    4.2869    0.0000 H   0  0  0  0  0  0  0  0  0  0  0  0
    5.1350   -0.5600    0.0000 H   0  0  0  0  0  0  0  0  0  0  0  0
    5.1350   -1.9400    0.0000 H   0  0  0  0  0  0  0  0  0  0  0  0
    2.3291   -3.5600    0.0000 H   0  0  0  0  0  0  0  0  0  0  0  0
    5.1350   -3.5600    0.0000 H   0  0  0  0  0  0  0  0  0  0  0  0
    3.7320   -4.3700    0.0000 H   0  0  0  0  0  0  0  0  0  0  0  0
  1 15  1  0  0  0  0
  2 13  2  0  0  0  0
  3  5  1  0  0  0  0
  3  6  1  0  0  0  0
  3  7  1  0  0  0  0
  3 20  1  0  0  0  0
  4  8  1  0  0  0  0
  4 13  1  0  0  0  0
  4 39  1  0  0  0  0
  5  9  1  0  0  0  0
  5 10  1  0  0  0  0
  5 22  1  0  0  0  0
  6 11  1  0  0  0  0
  6 12  1  0  0  0  0
  6 21  1  0  0  0  0
  7  8  1  0  0  0  0
  7 23  1  0  0  0  0
  7 24  1  0  0  0  0
  8 25  1  0  0  0  0
  8 26  1  0  0  0  0
  9 27  1  0  0  0  0
  9 37  1  0  0  0  0
  9 38  1  0  0  0  0
 10 34  1  0  0  0  0
 10 35  1  0  0  0  0
 10 36  1  0  0  0  0
 11 31  1  0  0  0  0
 11 32  1  0  0  0  0
 11 33  1  0  0  0  0
 12 28  1  0  0  0  0
 12 29  1  0  0  0  0
 12 30  1  0  0  0  0
 13 14  1  0  0  0  0
 14 15  1  0  0  0  0
 14 16  2  0  0  0  0
 15 17  2  0  0  0  0
 16 18  1  0  0  0  0
 16 40  1  0  0  0  0
 17 19  1  0  0  0  0
 17 41  1  0  0  0  0
 18 19  2  0  0  0  0
 18 42  1  0  0  0  0
 19 43  1  0  0  0  0
M  CHG  1   3   1
M  END
> <PUBCHEM_COMPOUND_CID>
30480769

> <PUBCHEM_COMPOUND_CANONICALIZED>
1

> <PUBCHEM_CACTVS_COMPLEXITY>
273

> <PUBCHEM_CACTVS_HBOND_ACCEPTOR>
1

> <PUBCHEM_CACTVS_HBOND_DONOR>
2

> <PUBCHEM_CACTVS_ROTATABLE_BOND>
6

> <PUBCHEM_CACTVS_SUBSKEYS>
AAADceBzIAAAAgAAAAAAAAAAAAAAAAAAAAAwAAAAAAAAAAABAAAAHgAwAAAADCjDmAQyAIPAAACIAiFSEACCAAAkAAAIiIEIBMgIYDKAlRGUIQhglgCIiYcYiACOAAAAAAAAAAAAAAAAAAAAAAAAAAAAAA==

> <PUBCHEM_IUPAC_OPENEYE_NAME>
2-[(2-iodobenzoyl)amino]ethyl-diisopropyl-ammonium

> <PUBCHEM_IUPAC_CAS_NAME>
2-[[(2-iodophenyl)-oxomethyl]amino]ethyl-di(propan-2-yl)ammonium

> <PUBCHEM_IUPAC_NAME>
2-[(2-iodobenzoyl)amino]ethyl-di(propan-2-yl)azanium

> <PUBCHEM_IUPAC_SYSTEMATIC_NAME>
2-[(2-iodanylphenyl)carbonylamino]ethyl-di(propan-2-yl)azanium

> <PUBCHEM_IUPAC_TRADITIONAL_NAME>
2-[(2-iodobenzoyl)amino]ethyl-diisopropyl-ammonium

> <PUBCHEM_IUPAC_INCHI>
InChI=1S/C15H23IN2O/c1-11(2)18(12(3)4)10-9-17-15(19)13-7-5-6-8-14(13)16/h5-8,11-12H,9-10H2,1-4H3,(H,17,19)/p+1

> <PUBCHEM_IUPAC_INCHIKEY>
BPGHOFJGHVTDLG-UHFFFAOYSA-O

> <PUBCHEM_XLOGP3>
2.9

> <PUBCHEM_EXACT_MASS>
375.093336

> <PUBCHEM_MOLECULAR_FORMULA>
C15H24IN2O+

> <PUBCHEM_MOLECULAR_WEIGHT>
375.26833

> <PUBCHEM_OPENEYE_CAN_SMILES>
CC(C)[NH+](CCNC(=O)C1=CC=CC=C1I)C(C)C

> <PUBCHEM_OPENEYE_ISO_SMILES>
CC(C)[NH+](CCNC(=O)C1=CC=CC=C1I)C(C)C

> <PUBCHEM_CACTVS_TPSA>
33.5

> <PUBCHEM_MONOISOTOPIC_WEIGHT>
375.093336

> <PUBCHEM_TOTAL_CHARGE>
1

> <PUBCHEM_HEAVY_ATOM_COUNT>
19

> <PUBCHEM_ATOM_DEF_STEREO_COUNT>
0

> <PUBCHEM_ATOM_UDEF_STEREO_COUNT>
0

> <PUBCHEM_BOND_DEF_STEREO_COUNT>
0

> <PUBCHEM_BOND_UDEF_STEREO_COUNT>
0

> <PUBCHEM_ISOTOPIC_ATOM_COUNT>
0

> <PUBCHEM_COMPONENT_COUNT>
1

> <PUBCHEM_CACTVS_TAUTO_COUNT>
2

> <PUBCHEM_COORDINATE_TYPE>
1
5
255

> <PUBCHEM_BONDANNOTATIONS>
14  15  8
14  16  8
15  17  8
16  18  8
17  19  8
18  19  8

$$$$
