24433397
  -OEChem-11301217362D

 50 52  0     0  0  0  0  0  0999 V2000
    8.9282    3.0000    0.0000 S   0  0  0  0  0  0  0  0  0  0  0  0
   11.5263    4.5000    0.0000 O   0  0  0  0  0  0  0  0  0  0  0  0
    8.4282    3.8660    0.0000 O   0  0  0  0  0  0  0  0  0  0  0  0
    9.4282    2.1340    0.0000 O   0  0  0  0  0  0  0  0  0  0  0  0
    2.0000   -2.0000    0.0000 O   0  5  0  0  0  0  0  0  0  0  0  0
    2.8660   -0.5000    0.0000 O   0  0  0  0  0  0  0  0  0  0  0  0
    5.4641   -5.0000    0.0000 O   0  5  0  0  0  0  0  0  0  0  0  0
    3.7320   -5.0000    0.0000 O   0  0  0  0  0  0  0  0  0  0  0  0
    9.7942    3.5000    0.0000 N   0  0  0  0  0  0  0  0  0  0  0  0
    5.4641    0.0000    0.0000 N   0  0  0  0  0  0  0  0  0  0  0  0
    4.5981   -0.5000    0.0000 N   0  0  0  0  0  0  0  0  0  0  0  0
    2.8660   -1.5000    0.0000 N   0  3  0  0  0  0  0  0  0  0  0  0
    4.5981   -4.5000    0.0000 N   0  3  0  0  0  0  0  0  0  0  0  0
    9.7942    4.5000    0.0000 C   0  0  0  0  0  0  0  0  0  0  0  0
   10.6603    3.0000    0.0000 C   0  0  0  0  0  0  0  0  0  0  0  0
   10.6603    5.0000    0.0000 C   0  0  0  0  0  0  0  0  0  0  0  0
   11.5263    3.5000    0.0000 C   0  0  0  0  0  0  0  0  0  0  0  0
    8.0622    2.5000    0.0000 C   0  0  0  0  0  0  0  0  0  0  0  0
    8.0622    1.5000    0.0000 C   0  0  0  0  0  0  0  0  0  0  0  0
    7.1962    3.0000    0.0000 C   0  0  0  0  0  0  0  0  0  0  0  0
    6.3301    1.5000    0.0000 C   0  0  0  0  0  0  0  0  0  0  0  0
    7.1962    1.0000    0.0000 C   0  0  0  0  0  0  0  0  0  0  0  0
    6.3301    2.5000    0.0000 C   0  0  0  0  0  0  0  0  0  0  0  0
    5.4641    1.0000    0.0000 C   0  0  0  0  0  0  0  0  0  0  0  0
    4.5981    1.5000    0.0000 C   0  0  0  0  0  0  0  0  0  0  0  0
    4.5981   -1.5000    0.0000 C   0  0  0  0  0  0  0  0  0  0  0  0
    3.7320   -2.0000    0.0000 C   0  0  0  0  0  0  0  0  0  0  0  0
    5.4641   -2.0000    0.0000 C   0  0  0  0  0  0  0  0  0  0  0  0
    3.7320   -3.0000    0.0000 C   0  0  0  0  0  0  0  0  0  0  0  0
    4.5981   -3.5000    0.0000 C   0  0  0  0  0  0  0  0  0  0  0  0
    5.4641   -3.0000    0.0000 C   0  0  0  0  0  0  0  0  0  0  0  0
    9.5822    5.0826    0.0000 H   0  0  0  0  0  0  0  0  0  0  0  0
    9.1836    4.3923    0.0000 H   0  0  0  0  0  0  0  0  0  0  0  0
   10.2617    2.5250    0.0000 H   0  0  0  0  0  0  0  0  0  0  0  0
   11.0588    2.5250    0.0000 H   0  0  0  0  0  0  0  0  0  0  0  0
   11.0588    5.4750    0.0000 H   0  0  0  0  0  0  0  0  0  0  0  0
   10.2617    5.4750    0.0000 H   0  0  0  0  0  0  0  0  0  0  0  0
   11.7383    2.9174    0.0000 H   0  0  0  0  0  0  0  0  0  0  0  0
   12.1369    3.6077    0.0000 H   0  0  0  0  0  0  0  0  0  0  0  0
    8.5991    1.1900    0.0000 H   0  0  0  0  0  0  0  0  0  0  0  0
    7.1962    3.6200    0.0000 H   0  0  0  0  0  0  0  0  0  0  0  0
    7.1962    0.3800    0.0000 H   0  0  0  0  0  0  0  0  0  0  0  0
    5.7932    2.8100    0.0000 H   0  0  0  0  0  0  0  0  0  0  0  0
    4.9081    2.0369    0.0000 H   0  0  0  0  0  0  0  0  0  0  0  0
    4.0611    1.8100    0.0000 H   0  0  0  0  0  0  0  0  0  0  0  0
    4.2881    0.9631    0.0000 H   0  0  0  0  0  0  0  0  0  0  0  0
    4.0611   -0.1900    0.0000 H   0  0  0  0  0  0  0  0  0  0  0  0
    6.0010   -1.6900    0.0000 H   0  0  0  0  0  0  0  0  0  0  0  0
    3.1951   -3.3100    0.0000 H   0  0  0  0  0  0  0  0  0  0  0  0
    6.0010   -3.3100    0.0000 H   0  0  0  0  0  0  0  0  0  0  0  0
  1  3  2  0  0  0  0
  1  4  2  0  0  0  0
  1  9  1  0  0  0  0
  1 18  1  0  0  0  0
  2 16  1  0  0  0  0
  2 17  1  0  0  0  0
  5 12  1  0  0  0  0
  6 12  2  0  0  0  0
  7 13  1  0  0  0  0
  8 13  2  0  0  0  0
  9 14  1  0  0  0  0
  9 15  1  0  0  0  0
 10 11  1  0  0  0  0
 10 24  2  0  0  0  0
 11 26  1  0  0  0  0
 11 47  1  0  0  0  0
 12 27  1  0  0  0  0
 13 30  1  0  0  0  0
 14 16  1  0  0  0  0
 14 32  1  0  0  0  0
 14 33  1  0  0  0  0
 15 17  1  0  0  0  0
 15 34  1  0  0  0  0
 15 35  1  0  0  0  0
 16 36  1  0  0  0  0
 16 37  1  0  0  0  0
 17 38  1  0  0  0  0
 17 39  1  0  0  0  0
 18 19  2  0  0  0  0
 18 20  1  0  0  0  0
 19 22  1  0  0  0  0
 19 40  1  0  0  0  0
 20 23  2  0  0  0  0
 20 41  1  0  0  0  0
 21 22  2  0  0  0  0
 21 23  1  0  0  0  0
 21 24  1  0  0  0  0
 22 42  1  0  0  0  0
 23 43  1  0  0  0  0
 24 25  1  0  0  0  0
 25 44  1  0  0  0  0
 25 45  1  0  0  0  0
 25 46  1  0  0  0  0
 26 27  2  0  0  0  0
 26 28  1  0  0  0  0
 27 29  1  0  0  0  0
 28 31  2  0  0  0  0
 28 48  1  0  0  0  0
 29 30  2  0  0  0  0
 29 49  1  0  0  0  0
 30 31  1  0  0  0  0
 31 50  1  0  0  0  0
M  CHG  4   5  -1   7  -1  12   1  13   1
M  END
> <PUBCHEM_COMPOUND_CID>
24433397

> <PUBCHEM_COMPOUND_CANONICALIZED>
1

> <PUBCHEM_CACTVS_COMPLEXITY>
775

> <PUBCHEM_CACTVS_HBOND_ACCEPTOR>
10

> <PUBCHEM_CACTVS_HBOND_DONOR>
1

> <PUBCHEM_CACTVS_ROTATABLE_BOND>
5

> <PUBCHEM_CACTVS_SUBSKEYS>
AAADceB7uABAAAAAAAAAAAAAAAAAAAAAAAA8YIAAAAAAAAABQAAAHgQcQAAADAjh2AYywYJyRAKhAyRiQ3DSBBAgAgA4iBg4dJoKYKKA0dGDIABgmICYyAcQgIAOEACAAAQAACAgAQAACAAAQAAAAAAAAA==

> <PUBCHEM_IUPAC_OPENEYE_NAME>
N-[(E)-1-(4-morpholinosulfonylphenyl)ethylideneamino]-2,4-dinitro-aniline

> <PUBCHEM_IUPAC_CAS_NAME>
N-[(E)-1-[4-(4-morpholinylsulfonyl)phenyl]ethylideneamino]-2,4-dinitroaniline

> <PUBCHEM_IUPAC_NAME>
N-[(E)-1-(4-morpholin-4-ylsulfonylphenyl)ethylideneamino]-2,4-dinitroaniline

> <PUBCHEM_IUPAC_SYSTEMATIC_NAME>
N-[(E)-1-(4-morpholin-4-ylsulfonylphenyl)ethylideneamino]-2,4-dinitro-aniline

> <PUBCHEM_IUPAC_TRADITIONAL_NAME>
(2,4-dinitrophenyl)-[(E)-1-(4-morpholinosulfonylphenyl)ethylideneamino]amine

> <PUBCHEM_IUPAC_INCHI>
InChI=1S/C18H19N5O7S/c1-13(19-20-17-7-4-15(22(24)25)12-18(17)23(26)27)14-2-5-16(6-3-14)31(28,29)21-8-10-30-11-9-21/h2-7,12,20H,8-11H2,1H3/b19-13+

> <PUBCHEM_IUPAC_INCHIKEY>
SBLSAJBYCYTKSH-CPNJWEJPSA-N

> <PUBCHEM_XLOGP3>
3.5

> <PUBCHEM_EXACT_MASS>
449.100519

> <PUBCHEM_MOLECULAR_FORMULA>
C18H19N5O7S

> <PUBCHEM_MOLECULAR_WEIGHT>
449.43776

> <PUBCHEM_OPENEYE_CAN_SMILES>
CC(=NNC1=C(C=C(C=C1)[N+](=O)[O-])[N+](=O)[O-])C2=CC=C(C=C2)S(=O)(=O)N3CCOCC3

> <PUBCHEM_OPENEYE_ISO_SMILES>
C/C(=N\NC1=C(C=C(C=C1)[N+](=O)[O-])[N+](=O)[O-])/C2=CC=C(C=C2)S(=O)(=O)N3CCOCC3

> <PUBCHEM_CACTVS_TPSA>
171

> <PUBCHEM_MONOISOTOPIC_WEIGHT>
449.100519

> <PUBCHEM_TOTAL_CHARGE>
0

> <PUBCHEM_HEAVY_ATOM_COUNT>
31

> <PUBCHEM_ATOM_DEF_STEREO_COUNT>
0

> <PUBCHEM_ATOM_UDEF_STEREO_COUNT>
0

> <PUBCHEM_BOND_DEF_STEREO_COUNT>
1

> <PUBCHEM_BOND_UDEF_STEREO_COUNT>
0

> <PUBCHEM_ISOTOPIC_ATOM_COUNT>
0

> <PUBCHEM_COMPONENT_COUNT>
1

> <PUBCHEM_CACTVS_TAUTO_COUNT>
1

> <PUBCHEM_COORDINATE_TYPE>
1
5
255

> <PUBCHEM_BONDANNOTATIONS>
18  19  8
18  20  8
19  22  8
20  23  8
21  22  8
21  23  8
26  27  8
26  28  8
27  29  8
28  31  8
29  30  8
30  31  8

$$$$
24443202
  -OEChem-11301217362D

 32 33  0     0  0  0  0  0  0999 V2000
    2.0000   -1.2500    0.0000 I   0  0  0  0  0  0  0  0  0  0  0  0
    5.4641   -0.2500    0.0000 O   0  0  0  0  0  0  0  0  0  0  0  0
    3.7320   -0.2500    0.0000 N   0  0  0  0  0  0  0  0  0  0  0  0
    5.4641    1.7500    0.0000 C   0  0  0  0  0  0  0  0  0  0  0  0
    4.5981    1.2500    0.0000 C   0  0  0  0  0  0  0  0  0  0  0  0
    6.3301    1.2500    0.0000 C   0  0  0  0  0  0  0  0  0  0  0  0
    5.4641    2.7500    0.0000 C   0  0  0  0  0  0  0  0  0  0  0  0
    4.5981    0.2500    0.0000 C   0  0  0  0  0  0  0  0  0  0  0  0
    7.1962    1.7500    0.0000 C   0  0  0  0  0  0  0  0  0  0  0  0
    6.3301    0.2500    0.0000 C   0  0  0  0  0  0  0  0  0  0  0  0
    3.7320   -1.2500    0.0000 C   0  0  0  0  0  0  0  0  0  0  0  0
    6.3301    3.2500    0.0000 C   0  0  0  0  0  0  0  0  0  0  0  0
    7.1962    2.7500    0.0000 C   0  0  0  0  0  0  0  0  0  0  0  0
    2.8660   -1.7500    0.0000 C   0  0  0  0  0  0  0  0  0  0  0  0
    4.5981   -1.7500    0.0000 C   0  0  0  0  0  0  0  0  0  0  0  0
    2.8660   -2.7500    0.0000 C   0  0  0  0  0  0  0  0  0  0  0  0
    4.5981   -2.7500    0.0000 C   0  0  0  0  0  0  0  0  0  0  0  0
    3.7320   -3.2500    0.0000 C   0  0  0  0  0  0  0  0  0  0  0  0
    4.3860    1.8326    0.0000 H   0  0  0  0  0  0  0  0  0  0  0  0
    3.9875    1.1423    0.0000 H   0  0  0  0  0  0  0  0  0  0  0  0
    4.9272    3.0600    0.0000 H   0  0  0  0  0  0  0  0  0  0  0  0
    7.7331    1.4400    0.0000 H   0  0  0  0  0  0  0  0  0  0  0  0
    5.7101    0.2500    0.0000 H   0  0  0  0  0  0  0  0  0  0  0  0
    6.3301   -0.3700    0.0000 H   0  0  0  0  0  0  0  0  0  0  0  0
    6.9501    0.2500    0.0000 H   0  0  0  0  0  0  0  0  0  0  0  0
    3.1951    0.0600    0.0000 H   0  0  0  0  0  0  0  0  0  0  0  0
    6.3301    3.8700    0.0000 H   0  0  0  0  0  0  0  0  0  0  0  0
    7.7331    3.0600    0.0000 H   0  0  0  0  0  0  0  0  0  0  0  0
    5.1350   -1.4400    0.0000 H   0  0  0  0  0  0  0  0  0  0  0  0
    2.3291   -3.0600    0.0000 H   0  0  0  0  0  0  0  0  0  0  0  0
    5.1350   -3.0600    0.0000 H   0  0  0  0  0  0  0  0  0  0  0  0
    3.7320   -3.8700    0.0000 H   0  0  0  0  0  0  0  0  0  0  0  0
  1 14  1  0  0  0  0
  2  8  2  0  0  0  0
  3  8  1  0  0  0  0
  3 11  1  0  0  0  0
  3 26  1  0  0  0  0
  4  5  1  0  0  0  0
  4  6  1  0  0  0  0
  4  7  2  0  0  0  0
  5  8  1  0  0  0  0
  5 19  1  0  0  0  0
  5 20  1  0  0  0  0
  6  9  2  0  0  0  0
  6 10  1  0  0  0  0
  7 12  1  0  0  0  0
  7 21  1  0  0  0  0
  9 13  1  0  0  0  0
  9 22  1  0  0  0  0
 10 23  1  0  0  0  0
 10 24  1  0  0  0  0
 10 25  1  0  0  0  0
 11 14  1  0  0  0  0
 11 15  2  0  0  0  0
 12 13  2  0  0  0  0
 12 27  1  0  0  0  0
 13 28  1  0  0  0  0
 14 16  2  0  0  0  0
 15 17  1  0  0  0  0
 15 29  1  0  0  0  0
 16 18  1  0  0  0  0
 16 30  1  0  0  0  0
 17 18  2  0  0  0  0
 17 31  1  0  0  0  0
 18 32  1  0  0  0  0
M  END
> <PUBCHEM_COMPOUND_CID>
24443202

> <PUBCHEM_COMPOUND_CANONICALIZED>
1

> <PUBCHEM_CACTVS_COMPLEXITY>
282

> <PUBCHEM_CACTVS_HBOND_ACCEPTOR>
1

> <PUBCHEM_CACTVS_HBOND_DONOR>
1

> <PUBCHEM_CACTVS_ROTATABLE_BOND>
3

> <PUBCHEM_CACTVS_SUBSKEYS>
AAADccByIAAAAgAAAAAAAAAAAAAAAAAAAAAwYAAAAAAAAAABQAAAHgAwAAAADAiDmAAywILAAACIAiVSUACCAAAhAgAIiAEAZIgIIDLAlZGEIAhglADIyAcYiICOgAAAAAAQAAAAAAAAACAAAAAAAAAAAA==

> <PUBCHEM_IUPAC_OPENEYE_NAME>
N-(2-iodophenyl)-2-(o-tolyl)acetamide

> <PUBCHEM_IUPAC_CAS_NAME>
N-(2-iodophenyl)-2-(2-methylphenyl)acetamide

> <PUBCHEM_IUPAC_NAME>
N-(2-iodophenyl)-2-(2-methylphenyl)acetamide

> <PUBCHEM_IUPAC_SYSTEMATIC_NAME>
N-(2-iodanylphenyl)-2-(2-methylphenyl)ethanamide

> <PUBCHEM_IUPAC_TRADITIONAL_NAME>
N-(2-iodophenyl)-2-(o-tolyl)acetamide

> <PUBCHEM_IUPAC_INCHI>
InChI=1S/C15H14INO/c1-11-6-2-3-7-12(11)10-15(18)17-14-9-5-4-8-13(14)16/h2-9H,10H2,1H3,(H,17,18)

> <PUBCHEM_IUPAC_INCHIKEY>
RXTOMVGTVFWXAK-UHFFFAOYSA-N

> <PUBCHEM_XLOGP3>
3.5

> <PUBCHEM_EXACT_MASS>
351.012012

> <PUBCHEM_MOLECULAR_FORMULA>
C15H14INO

> <PUBCHEM_MOLECULAR_WEIGHT>
351.18223

> <PUBCHEM_OPENEYE_CAN_SMILES>
CC1=CC=CC=C1CC(=O)NC2=CC=CC=C2I

> <PUBCHEM_OPENEYE_ISO_SMILES>
CC1=CC=CC=C1CC(=O)NC2=CC=CC=C2I

> <PUBCHEM_CACTVS_TPSA>
29.1

> <PUBCHEM_MONOISOTOPIC_WEIGHT>
351.012012

> <PUBCHEM_TOTAL_CHARGE>
0

> <PUBCHEM_HEAVY_ATOM_COUNT>
18

> <PUBCHEM_ATOM_DEF_STEREO_COUNT>
0

> <PUBCHEM_ATOM_UDEF_STEREO_COUNT>
0

> <PUBCHEM_BOND_DEF_STEREO_COUNT>
0

> <PUBCHEM_BOND_UDEF_STEREO_COUNT>
0

> <PUBCHEM_ISOTOPIC_ATOM_COUNT>
0

> <PUBCHEM_COMPONENT_COUNT>
1

> <PUBCHEM_CACTVS_TAUTO_COUNT>
3

> <PUBCHEM_COORDINATE_TYPE>
1
5
255

> <PUBCHEM_BONDANNOTATIONS>
11  14  8
11  15  8
12  13  8
14  16  8
15  17  8
16  18  8
17  18  8
4  6  8
4  7  8
6  9  8
7  12  8
9  13  8

$$$$
24444143
  -OEChem-11301217362D

 32 33  0     0  0  0  0  0  0999 V2000
    5.4641   -3.2500    0.0000 Cl  0  0  0  0  0  0  0  0  0  0  0  0
    2.0000   -3.2500    0.0000 Cl  0  0  0  0  0  0  0  0  0  0  0  0
    5.4641   -0.2500    0.0000 O   0  0  0  0  0  0  0  0  0  0  0  0
    3.7320   -0.2500    0.0000 N   0  0  0  0  0  0  0  0  0  0  0  0
    5.4641    1.7500    0.0000 C   0  0  0  0  0  0  0  0  0  0  0  0
    4.5981    1.2500    0.0000 C   0  0  0  0  0  0  0  0  0  0  0  0
    6.3301    1.2500    0.0000 C   0  0  0  0  0  0  0  0  0  0  0  0
    4.5981    0.2500    0.0000 C   0  0  0  0  0  0  0  0  0  0  0  0
    5.4641    2.7500    0.0000 C   0  0  0  0  0  0  0  0  0  0  0  0
    7.1962    1.7500    0.0000 C   0  0  0  0  0  0  0  0  0  0  0  0
    6.3301    0.2500    0.0000 C   0  0  0  0  0  0  0  0  0  0  0  0
    3.7320   -1.2500    0.0000 C   0  0  0  0  0  0  0  0  0  0  0  0
    6.3301    3.2500    0.0000 C   0  0  0  0  0  0  0  0  0  0  0  0
    7.1962    2.7500    0.0000 C   0  0  0  0  0  0  0  0  0  0  0  0
    2.8660   -1.7500    0.0000 C   0  0  0  0  0  0  0  0  0  0  0  0
    4.5981   -1.7500    0.0000 C   0  0  0  0  0  0  0  0  0  0  0  0
    4.5981   -2.7500    0.0000 C   0  0  0  0  0  0  0  0  0  0  0  0
    2.8660   -2.7500    0.0000 C   0  0  0  0  0  0  0  0  0  0  0  0
    3.7320   -3.2500    0.0000 C   0  0  0  0  0  0  0  0  0  0  0  0
    4.3860    1.8326    0.0000 H   0  0  0  0  0  0  0  0  0  0  0  0
    3.9875    1.1423    0.0000 H   0  0  0  0  0  0  0  0  0  0  0  0
    4.9272    3.0600    0.0000 H   0  0  0  0  0  0  0  0  0  0  0  0
    7.7331    1.4400    0.0000 H   0  0  0  0  0  0  0  0  0  0  0  0
    3.1951    0.0600    0.0000 H   0  0  0  0  0  0  0  0  0  0  0  0
    5.7101    0.2500    0.0000 H   0  0  0  0  0  0  0  0  0  0  0  0
    6.3301   -0.3700    0.0000 H   0  0  0  0  0  0  0  0  0  0  0  0
    6.9501    0.2500    0.0000 H   0  0  0  0  0  0  0  0  0  0  0  0
    6.3301    3.8700    0.0000 H   0  0  0  0  0  0  0  0  0  0  0  0
    7.7331    3.0600    0.0000 H   0  0  0  0  0  0  0  0  0  0  0  0
    2.3291   -1.4400    0.0000 H   0  0  0  0  0  0  0  0  0  0  0  0
    5.1350   -1.4400    0.0000 H   0  0  0  0  0  0  0  0  0  0  0  0
    3.7320   -3.8700    0.0000 H   0  0  0  0  0  0  0  0  0  0  0  0
  1 17  1  0  0  0  0
  2 18  1  0  0  0  0
  3  8  2  0  0  0  0
  4  8  1  0  0  0  0
  4 12  1  0  0  0  0
  4 24  1  0  0  0  0
  5  6  1  0  0  0  0
  5  7  1  0  0  0  0
  5  9  2  0  0  0  0
  6  8  1  0  0  0  0
  6 20  1  0  0  0  0
  6 21  1  0  0  0  0
  7 10  2  0  0  0  0
  7 11  1  0  0  0  0
  9 13  1  0  0  0  0
  9 22  1  0  0  0  0
 10 14  1  0  0  0  0
 10 23  1  0  0  0  0
 11 25  1  0  0  0  0
 11 26  1  0  0  0  0
 11 27  1  0  0  0  0
 12 15  2  0  0  0  0
 12 16  1  0  0  0  0
 13 14  2  0  0  0  0
 13 28  1  0  0  0  0
 14 29  1  0  0  0  0
 15 18  1  0  0  0  0
 15 30  1  0  0  0  0
 16 17  2  0  0  0  0
 16 31  1  0  0  0  0
 17 19  1  0  0  0  0
 18 19  2  0  0  0  0
 19 32  1  0  0  0  0
M  END
> <PUBCHEM_COMPOUND_CID>
24444143

> <PUBCHEM_COMPOUND_CANONICALIZED>
1

> <PUBCHEM_CACTVS_COMPLEXITY>
301

> <PUBCHEM_CACTVS_HBOND_ACCEPTOR>
1

> <PUBCHEM_CACTVS_HBOND_DONOR>
1

> <PUBCHEM_CACTVS_ROTATABLE_BOND>
3

> <PUBCHEM_CACTVS_SUBSKEYS>
AAADccByIAAGAAAAAAAAAAAAAAAAAAAAAAAwYAAAAAAAAAABQAAAHgIQAAAADAqBmCAywILAAACIAiVSUACCAAAhBwAIiAEAZogIIDLBl5GEIAhglADIyAcYiICOgAAAAAKQAAAAAAAABSAAAAAAAAAAAA==

> <PUBCHEM_IUPAC_OPENEYE_NAME>
N-(3,5-dichlorophenyl)-2-(o-tolyl)acetamide

> <PUBCHEM_IUPAC_CAS_NAME>
N-(3,5-dichlorophenyl)-2-(2-methylphenyl)acetamide

> <PUBCHEM_IUPAC_NAME>
N-(3,5-dichlorophenyl)-2-(2-methylphenyl)acetamide

> <PUBCHEM_IUPAC_SYSTEMATIC_NAME>
N-[3,5-bis(chloranyl)phenyl]-2-(2-methylphenyl)ethanamide

> <PUBCHEM_IUPAC_TRADITIONAL_NAME>
N-(3,5-dichlorophenyl)-2-(o-tolyl)acetamide

> <PUBCHEM_IUPAC_INCHI>
InChI=1S/C15H13Cl2NO/c1-10-4-2-3-5-11(10)6-15(19)18-14-8-12(16)7-13(17)9-14/h2-5,7-9H,6H2,1H3,(H,18,19)

> <PUBCHEM_IUPAC_INCHIKEY>
SIOKJOWIUMFDRH-UHFFFAOYSA-N

> <PUBCHEM_XLOGP3>
4.5

> <PUBCHEM_EXACT_MASS>
293.037419

> <PUBCHEM_MOLECULAR_FORMULA>
C15H13Cl2NO

> <PUBCHEM_MOLECULAR_WEIGHT>
294.17582

> <PUBCHEM_OPENEYE_CAN_SMILES>
CC1=CC=CC=C1CC(=O)NC2=CC(=CC(=C2)Cl)Cl

> <PUBCHEM_OPENEYE_ISO_SMILES>
CC1=CC=CC=C1CC(=O)NC2=CC(=CC(=C2)Cl)Cl

> <PUBCHEM_CACTVS_TPSA>
29.1

> <PUBCHEM_MONOISOTOPIC_WEIGHT>
293.037419

> <PUBCHEM_TOTAL_CHARGE>
0

> <PUBCHEM_HEAVY_ATOM_COUNT>
19

> <PUBCHEM_ATOM_DEF_STEREO_COUNT>
0

> <PUBCHEM_ATOM_UDEF_STEREO_COUNT>
0

> <PUBCHEM_BOND_DEF_STEREO_COUNT>
0

> <PUBCHEM_BOND_UDEF_STEREO_COUNT>
0

> <PUBCHEM_ISOTOPIC_ATOM_COUNT>
0

> <PUBCHEM_COMPONENT_COUNT>
1

> <PUBCHEM_CACTVS_TAUTO_COUNT>
3

> <PUBCHEM_COORDINATE_TYPE>
1
5
255

> <PUBCHEM_BONDANNOTATIONS>
10  14  8
12  15  8
12  16  8
13  14  8
15  18  8
16  17  8
17  19  8
18  19  8
5  7  8
5  9  8
7  10  8
9  13  8

$$$$
24446967
  -OEChem-11301217362D

 39 41  0     0  0  0  0  0  0999 V2000
    5.6103    1.3684    0.0000 O   0  0  0  0  0  0  0  0  0  0  0  0
    4.6783   -3.0926    0.0000 N   0  0  0  0  0  0  0  0  0  0  0  0
    7.2566    0.8304    0.0000 N   0  0  0  0  0  0  0  0  0  0  0  0
    4.6783   -1.4831    0.0000 C   0  0  0  0  0  0  0  0  0  0  0  0
    4.9889   -0.5326    0.0000 C   0  0  0  0  0  0  0  0  0  0  0  0
    3.7320   -1.7879    0.0000 C   0  0  0  0  0  0  0  0  0  0  0  0
    5.9674   -0.3264    0.0000 C   0  0  0  0  0  0  0  0  0  0  0  0
    3.7320   -2.7879    0.0000 C   0  0  0  0  0  0  0  0  0  0  0  0
    5.2619   -2.2879    0.0000 C   0  0  0  0  0  0  0  0  0  0  0  0
    6.2781    0.6241    0.0000 C   0  0  0  0  0  0  0  0  0  0  0  0
    2.8660   -1.2879    0.0000 C   0  0  0  0  0  0  0  0  0  0  0  0
    2.8660   -3.2879    0.0000 C   0  0  0  0  0  0  0  0  0  0  0  0
    2.0000   -1.7879    0.0000 C   0  0  0  0  0  0  0  0  0  0  0  0
    7.5673    1.7809    0.0000 C   0  0  0  0  0  0  0  0  0  0  0  0
    2.0000   -2.7879    0.0000 C   0  0  0  0  0  0  0  0  0  0  0  0
    7.9244    0.0861    0.0000 C   0  0  0  0  0  0  0  0  0  0  0  0
    8.5458    1.9871    0.0000 C   0  0  0  0  0  0  0  0  0  0  0  0
    6.8994    2.5252    0.0000 C   0  0  0  0  0  0  0  0  0  0  0  0
    8.8564    2.9376    0.0000 C   0  0  0  0  0  0  0  0  0  0  0  0
    7.2101    3.4757    0.0000 C   0  0  0  0  0  0  0  0  0  0  0  0
    8.1886    3.6819    0.0000 C   0  0  0  0  0  0  0  0  0  0  0  0
    4.9684    0.0871    0.0000 H   0  0  0  0  0  0  0  0  0  0  0  0
    4.3751   -0.4453    0.0000 H   0  0  0  0  0  0  0  0  0  0  0  0
    5.9880   -0.9460    0.0000 H   0  0  0  0  0  0  0  0  0  0  0  0
    6.5812   -0.4137    0.0000 H   0  0  0  0  0  0  0  0  0  0  0  0
    5.8819   -2.2879    0.0000 H   0  0  0  0  0  0  0  0  0  0  0  0
    4.8709   -3.6819    0.0000 H   0  0  0  0  0  0  0  0  0  0  0  0
    2.8660   -0.6679    0.0000 H   0  0  0  0  0  0  0  0  0  0  0  0
    2.8660   -3.9079    0.0000 H   0  0  0  0  0  0  0  0  0  0  0  0
    1.4631   -1.4779    0.0000 H   0  0  0  0  0  0  0  0  0  0  0  0
    1.4631   -3.0979    0.0000 H   0  0  0  0  0  0  0  0  0  0  0  0
    7.4630   -0.3280    0.0000 H   0  0  0  0  0  0  0  0  0  0  0  0
    8.3385   -0.3754    0.0000 H   0  0  0  0  0  0  0  0  0  0  0  0
    8.3859    0.5001    0.0000 H   0  0  0  0  0  0  0  0  0  0  0  0
    8.9598    1.5256    0.0000 H   0  0  0  0  0  0  0  0  0  0  0  0
    6.2928    2.3973    0.0000 H   0  0  0  0  0  0  0  0  0  0  0  0
    9.4631    3.0655    0.0000 H   0  0  0  0  0  0  0  0  0  0  0  0
    6.7960    3.9372    0.0000 H   0  0  0  0  0  0  0  0  0  0  0  0
    8.3812    4.2712    0.0000 H   0  0  0  0  0  0  0  0  0  0  0  0
  1 10  2  0  0  0  0
  2  8  1  0  0  0  0
  2  9  1  0  0  0  0
  2 27  1  0  0  0  0
  3 10  1  0  0  0  0
  3 14  1  0  0  0  0
  3 16  1  0  0  0  0
  4  5  1  0  0  0  0
  4  6  1  0  0  0  0
  4  9  2  0  0  0  0
  5  7  1  0  0  0  0
  5 22  1  0  0  0  0
  5 23  1  0  0  0  0
  6  8  1  0  0  0  0
  6 11  2  0  0  0  0
  7 10  1  0  0  0  0
  7 24  1  0  0  0  0
  7 25  1  0  0  0  0
  8 12  2  0  0  0  0
  9 26  1  0  0  0  0
 11 13  1  0  0  0  0
 11 28  1  0  0  0  0
 12 15  1  0  0  0  0
 12 29  1  0  0  0  0
 13 15  2  0  0  0  0
 13 30  1  0  0  0  0
 14 17  2  0  0  0  0
 14 18  1  0  0  0  0
 15 31  1  0  0  0  0
 16 32  1  0  0  0  0
 16 33  1  0  0  0  0
 16 34  1  0  0  0  0
 17 19  1  0  0  0  0
 17 35  1  0  0  0  0
 18 20  2  0  0  0  0
 18 36  1  0  0  0  0
 19 21  2  0  0  0  0
 19 37  1  0  0  0  0
 20 21  1  0  0  0  0
 20 38  1  0  0  0  0
 21 39  1  0  0  0  0
M  END
> <PUBCHEM_COMPOUND_CID>
24446967

> <PUBCHEM_COMPOUND_CANONICALIZED>
1

> <PUBCHEM_CACTVS_COMPLEXITY>
351

> <PUBCHEM_CACTVS_HBOND_ACCEPTOR>
1

> <PUBCHEM_CACTVS_HBOND_DONOR>
1

> <PUBCHEM_CACTVS_ROTATABLE_BOND>
4

> <PUBCHEM_CACTVS_SUBSKEYS>
AAADceB7IAAAAAAAAAAAAAAAAAAAAWAAAAAwYAAAAAAAAFgB9AAAHgAQAAAADAjBngQ+wPPJkACoAzV3VACCgCAxAiAI2aE4ZJgIIPLAkZGEIAhglgDIyAcYicCOgAAAAAACAAAAAAAAAAQAAAAAAAAAAA==

> <PUBCHEM_IUPAC_OPENEYE_NAME>
3-(1H-indol-3-yl)-N-methyl-N-phenyl-propanamide

> <PUBCHEM_IUPAC_CAS_NAME>
3-(1H-indol-3-yl)-N-methyl-N-phenylpropanamide

> <PUBCHEM_IUPAC_NAME>
3-(1H-indol-3-yl)-N-methyl-N-phenylpropanamide

> <PUBCHEM_IUPAC_SYSTEMATIC_NAME>
3-(1H-indol-3-yl)-N-methyl-N-phenyl-propanamide

> <PUBCHEM_IUPAC_TRADITIONAL_NAME>
3-(1H-indol-3-yl)-N-methyl-N-phenyl-propionamide

> <PUBCHEM_IUPAC_INCHI>
InChI=1S/C18H18N2O/c1-20(15-7-3-2-4-8-15)18(21)12-11-14-13-19-17-10-6-5-9-16(14)17/h2-10,13,19H,11-12H2,1H3

> <PUBCHEM_IUPAC_INCHIKEY>
ROVZEBQRFKYLDH-UHFFFAOYSA-N

> <PUBCHEM_XLOGP3>
3.2

> <PUBCHEM_EXACT_MASS>
278.141913

> <PUBCHEM_MOLECULAR_FORMULA>
C18H18N2O

> <PUBCHEM_MOLECULAR_WEIGHT>
278.34832

> <PUBCHEM_OPENEYE_CAN_SMILES>
CN(C1=CC=CC=C1)C(=O)CCC2=CNC3=CC=CC=C32

> <PUBCHEM_OPENEYE_ISO_SMILES>
CN(C1=CC=CC=C1)C(=O)CCC2=CNC3=CC=CC=C32

> <PUBCHEM_CACTVS_TPSA>
36.1

> <PUBCHEM_MONOISOTOPIC_WEIGHT>
278.141913

> <PUBCHEM_TOTAL_CHARGE>
0

> <PUBCHEM_HEAVY_ATOM_COUNT>
21

> <PUBCHEM_ATOM_DEF_STEREO_COUNT>
0

> <PUBCHEM_ATOM_UDEF_STEREO_COUNT>
0

> <PUBCHEM_BOND_DEF_STEREO_COUNT>
0

> <PUBCHEM_BOND_UDEF_STEREO_COUNT>
0

> <PUBCHEM_ISOTOPIC_ATOM_COUNT>
0

> <PUBCHEM_COMPONENT_COUNT>
1

> <PUBCHEM_CACTVS_TAUTO_COUNT>
1

> <PUBCHEM_COORDINATE_TYPE>
1
5
255

> <PUBCHEM_BONDANNOTATIONS>
11  13  8
12  15  8
13  15  8
14  17  8
14  18  8
17  19  8
18  20  8
19  21  8
2  8  8
2  9  8
20  21  8
4  6  8
4  9  8
6  11  8
6  8  8
8  12  8

$$$$
24449852
  -OEChem-11301217362D

 55 57  0     0  0  0  0  0  0999 V2000
    7.1962   -1.8450    0.0000 S   0  0  0  0  0  0  0  0  0  0  0  0
    8.0622    2.6550    0.0000 S   0  0  0  0  0  0  0  0  0  0  0  0
    7.6962   -2.7110    0.0000 O   0  0  0  0  0  0  0  0  0  0  0  0
    6.6962   -0.9790    0.0000 O   0  0  0  0  0  0  0  0  0  0  0  0
    9.0622    2.6550    0.0000 O   0  0  0  0  0  0  0  0  0  0  0  0
    7.0622    2.6550    0.0000 O   0  0  0  0  0  0  0  0  0  0  0  0
    2.8660   -6.3450    0.0000 O   0  0  0  0  0  0  0  0  0  0  0  0
    2.0000   -4.8450    0.0000 O   0  0  0  0  0  0  0  0  0  0  0  0
    8.0622   -1.3450    0.0000 N   0  0  0  0  0  0  0  0  0  0  0  0
    8.0622    3.6550    0.0000 N   0  0  0  0  0  0  0  0  0  0  0  0
    8.9282    5.1550    0.0000 N   0  0  0  0  0  0  0  0  0  0  0  0
    9.7942    3.6550    0.0000 N   0  0  0  0  0  0  0  0  0  0  0  0
    6.3301   -2.3450    0.0000 C   0  0  0  0  0  0  0  0  0  0  0  0
    4.5981   -3.3450    0.0000 C   0  0  0  0  0  0  0  0  0  0  0  0
    3.7320   -3.8450    0.0000 C   0  0  0  0  0  0  0  0  0  0  0  0
    8.0622   -0.3450    0.0000 C   0  0  0  0  0  0  0  0  0  0  0  0
    8.0622    1.6550    0.0000 C   0  0  0  0  0  0  0  0  0  0  0  0
    5.4641   -1.8450    0.0000 C   0  0  0  0  0  0  0  0  0  0  0  0
    6.3301   -3.3450    0.0000 C   0  0  0  0  0  0  0  0  0  0  0  0
    4.5981   -2.3450    0.0000 C   0  0  0  0  0  0  0  0  0  0  0  0
    5.4641   -3.8450    0.0000 C   0  0  0  0  0  0  0  0  0  0  0  0
    3.7320   -4.8450    0.0000 C   0  0  0  0  0  0  0  0  0  0  0  0
    8.9282    0.1550    0.0000 C   0  0  0  0  0  0  0  0  0  0  0  0
    7.1962    0.1550    0.0000 C   0  0  0  0  0  0  0  0  0  0  0  0
    8.9282    1.1550    0.0000 C   0  0  0  0  0  0  0  0  0  0  0  0
    7.1962    1.1550    0.0000 C   0  0  0  0  0  0  0  0  0  0  0  0
    8.9282    4.1550    0.0000 C   0  0  0  0  0  0  0  0  0  0  0  0
    2.8660   -5.3450    0.0000 C   0  0  0  0  0  0  0  0  0  0  0  0
    9.7942    5.6550    0.0000 C   0  0  0  0  0  0  0  0  0  0  0  0
   10.6603    4.1550    0.0000 C   0  0  0  0  0  0  0  0  0  0  0  0
   10.6603    5.1550    0.0000 C   0  0  0  0  0  0  0  0  0  0  0  0
    9.7942    6.6550    0.0000 C   0  0  0  0  0  0  0  0  0  0  0  0
   11.5263    3.6550    0.0000 C   0  0  0  0  0  0  0  0  0  0  0  0
    3.5200   -3.2624    0.0000 H   0  0  0  0  0  0  0  0  0  0  0  0
    3.1215   -3.9527    0.0000 H   0  0  0  0  0  0  0  0  0  0  0  0
    8.5991   -1.6550    0.0000 H   0  0  0  0  0  0  0  0  0  0  0  0
    5.4641   -1.2250    0.0000 H   0  0  0  0  0  0  0  0  0  0  0  0
    6.8671   -3.6550    0.0000 H   0  0  0  0  0  0  0  0  0  0  0  0
    4.0611   -2.0350    0.0000 H   0  0  0  0  0  0  0  0  0  0  0  0
    5.4641   -4.4650    0.0000 H   0  0  0  0  0  0  0  0  0  0  0  0
    3.9441   -5.4276    0.0000 H   0  0  0  0  0  0  0  0  0  0  0  0
    4.3426   -4.7373    0.0000 H   0  0  0  0  0  0  0  0  0  0  0  0
    9.4651   -0.1550    0.0000 H   0  0  0  0  0  0  0  0  0  0  0  0
    6.6592   -0.1550    0.0000 H   0  0  0  0  0  0  0  0  0  0  0  0
    9.4651    1.4650    0.0000 H   0  0  0  0  0  0  0  0  0  0  0  0
    6.6592    1.4650    0.0000 H   0  0  0  0  0  0  0  0  0  0  0  0
    7.5252    3.9650    0.0000 H   0  0  0  0  0  0  0  0  0  0  0  0
   11.1972    5.4650    0.0000 H   0  0  0  0  0  0  0  0  0  0  0  0
   10.4142    6.6550    0.0000 H   0  0  0  0  0  0  0  0  0  0  0  0
    9.7942    7.2750    0.0000 H   0  0  0  0  0  0  0  0  0  0  0  0
    9.1742    6.6550    0.0000 H   0  0  0  0  0  0  0  0  0  0  0  0
   11.2163    3.1181    0.0000 H   0  0  0  0  0  0  0  0  0  0  0  0
   12.0632    3.3450    0.0000 H   0  0  0  0  0  0  0  0  0  0  0  0
   11.8363    4.1919    0.0000 H   0  0  0  0  0  0  0  0  0  0  0  0
    2.3291   -6.6550    0.0000 H   0  0  0  0  0  0  0  0  0  0  0  0
  1  3  2  0  0  0  0
  1  4  2  0  0  0  0
  1  9  1  0  0  0  0
  1 13  1  0  0  0  0
  2  5  2  0  0  0  0
  2  6  2  0  0  0  0
  2 10  1  0  0  0  0
  2 17  1  0  0  0  0
  7 28  1  0  0  0  0
  7 55  1  0  0  0  0
  8 28  2  0  0  0  0
  9 16  1  0  0  0  0
  9 36  1  0  0  0  0
 10 27  1  0  0  0  0
 10 47  1  0  0  0  0
 11 27  1  0  0  0  0
 11 29  2  0  0  0  0
 12 27  2  0  0  0  0
 12 30  1  0  0  0  0
 13 18  2  0  0  0  0
 13 19  1  0  0  0  0
 14 15  1  0  0  0  0
 14 20  2  0  0  0  0
 14 21  1  0  0  0  0
 15 22  1  0  0  0  0
 15 34  1  0  0  0  0
 15 35  1  0  0  0  0
 16 23  2  0  0  0  0
 16 24  1  0  0  0  0
 17 25  2  0  0  0  0
 17 26  1  0  0  0  0
 18 20  1  0  0  0  0
 18 37  1  0  0  0  0
 19 21  2  0  0  0  0
 19 38  1  0  0  0  0
 20 39  1  0  0  0  0
 21 40  1  0  0  0  0
 22 28  1  0  0  0  0
 22 41  1  0  0  0  0
 22 42  1  0  0  0  0
 23 25  1  0  0  0  0
 23 43  1  0  0  0  0
 24 26  2  0  0  0  0
 24 44  1  0  0  0  0
 25 45  1  0  0  0  0
 26 46  1  0  0  0  0
 29 31  1  0  0  0  0
 29 32  1  0  0  0  0
 30 31  2  0  0  0  0
 30 33  1  0  0  0  0
 31 48  1  0  0  0  0
 32 49  1  0  0  0  0
 32 50  1  0  0  0  0
 32 51  1  0  0  0  0
 33 52  1  0  0  0  0
 33 53  1  0  0  0  0
 33 54  1  0  0  0  0
M  END
> <PUBCHEM_COMPOUND_CID>
24449852

> <PUBCHEM_COMPOUND_CANONICALIZED>
1

> <PUBCHEM_CACTVS_COMPLEXITY>
844

> <PUBCHEM_CACTVS_HBOND_ACCEPTOR>
10

> <PUBCHEM_CACTVS_HBOND_DONOR>
3

> <PUBCHEM_CACTVS_ROTATABLE_BOND>
9

> <PUBCHEM_CACTVS_SUBSKEYS>
AAADceB7uABgAAAAAAAAAAAAAAAAAAAAAAA8YIAAAAAAAAAB0AAAHgQQSAAADAiB3gAz2ZZIEgKoAyTybHDCgDkhAqAJmDkwZJiIKDLA2dGEZAhskAJIyCeYyKCOEAQAAAAAAAAgCAAAAAAAAAAAAAAAAA==

> <PUBCHEM_IUPAC_OPENEYE_NAME>
3-[4-[[4-[(4,6-dimethylpyrimidin-2-yl)sulfamoyl]phenyl]sulfamoyl]phenyl]propanoic acid

> <PUBCHEM_IUPAC_CAS_NAME>
3-[4-[[4-[(4,6-dimethyl-2-pyrimidinyl)sulfamoyl]phenyl]sulfamoyl]phenyl]propanoic acid

> <PUBCHEM_IUPAC_NAME>
3-[4-[[4-[(4,6-dimethylpyrimidin-2-yl)sulfamoyl]phenyl]sulfamoyl]phenyl]propanoic acid

> <PUBCHEM_IUPAC_SYSTEMATIC_NAME>
3-[4-[[4-[(4,6-dimethylpyrimidin-2-yl)sulfamoyl]phenyl]sulfamoyl]phenyl]propanoic acid

> <PUBCHEM_IUPAC_TRADITIONAL_NAME>
3-[4-[[4-[(4,6-dimethylpyrimidin-2-yl)sulfamoyl]phenyl]sulfamoyl]phenyl]propionic acid

> <PUBCHEM_IUPAC_INCHI>
InChI=1S/C21H22N4O6S2/c1-14-13-15(2)23-21(22-14)25-33(30,31)19-10-6-17(7-11-19)24-32(28,29)18-8-3-16(4-9-18)5-12-20(26)27/h3-4,6-11,13,24H,5,12H2,1-2H3,(H,26,27)(H,22,23,25)

> <PUBCHEM_IUPAC_INCHIKEY>
CTCPGNCMKUAMJY-UHFFFAOYSA-N

> <PUBCHEM_XLOGP3>
1.2

> <PUBCHEM_EXACT_MASS>
490.098076

> <PUBCHEM_MOLECULAR_FORMULA>
C21H22N4O6S2

> <PUBCHEM_MOLECULAR_WEIGHT>
490.55258

> <PUBCHEM_OPENEYE_CAN_SMILES>
CC1=CC(=NC(=N1)NS(=O)(=O)C2=CC=C(C=C2)NS(=O)(=O)C3=CC=C(C=C3)CCC(=O)O)C

> <PUBCHEM_OPENEYE_ISO_SMILES>
CC1=CC(=NC(=N1)NS(=O)(=O)C2=CC=C(C=C2)NS(=O)(=O)C3=CC=C(C=C3)CCC(=O)O)C

> <PUBCHEM_CACTVS_TPSA>
172

> <PUBCHEM_MONOISOTOPIC_WEIGHT>
490.098076

> <PUBCHEM_TOTAL_CHARGE>
0

> <PUBCHEM_HEAVY_ATOM_COUNT>
33

> <PUBCHEM_ATOM_DEF_STEREO_COUNT>
0

> <PUBCHEM_ATOM_UDEF_STEREO_COUNT>
0

> <PUBCHEM_BOND_DEF_STEREO_COUNT>
0

> <PUBCHEM_BOND_UDEF_STEREO_COUNT>
0

> <PUBCHEM_ISOTOPIC_ATOM_COUNT>
0

> <PUBCHEM_COMPONENT_COUNT>
1

> <PUBCHEM_CACTVS_TAUTO_COUNT>
5

> <PUBCHEM_COORDINATE_TYPE>
1
5
255

> <PUBCHEM_BONDANNOTATIONS>
11  27  8
11  29  8
12  27  8
12  30  8
13  18  8
13  19  8
14  20  8
14  21  8
16  23  8
16  24  8
17  25  8
17  26  8
18  20  8
19  21  8
23  25  8
24  26  8
29  31  8
30  31  8

$$$$
