68605839
  -OEChem-12041212362D

 24 25  0     0  0  0  0  0  0999 V2000
    2.5369    2.0950    0.0000 O   0  0  0  0  0  0  0  0  0  0  0  0
    4.2690    2.0950    0.0000 N   0  0  0  0  0  0  0  0  0  0  0  0
    3.4030    0.5950    0.0000 N   0  0  0  0  0  0  0  0  0  0  0  0
    4.2690   -0.9050    0.0000 N   0  0  0  0  0  0  0  0  0  0  0  0
    3.4030   -2.4050    0.0000 N   0  0  0  0  0  0  0  0  0  0  0  0
    2.5369   -0.9050    0.0000 N   0  0  0  0  0  0  0  0  0  0  0  0
    5.1350    0.5950    0.0000 C   0  0  0  0  0  0  0  0  0  0  0  0
    5.1350    1.5950    0.0000 C   0  0  0  0  0  0  0  0  0  0  0  0
    4.2690    0.0950    0.0000 C   0  0  0  0  0  0  0  0  0  0  0  0
    6.0290    0.0603    0.0000 C   0  0  0  0  0  0  0  0  0  0  0  0
    6.0290    2.1297    0.0000 C   0  0  0  0  0  0  0  0  0  0  0  0
    6.9350    0.5742    0.0000 C   0  0  0  0  0  0  0  0  0  0  0  0
    6.9350    1.6158    0.0000 C   0  0  0  0  0  0  0  0  0  0  0  0
    3.4030    1.5950    0.0000 C   0  0  0  0  0  0  0  0  0  0  0  0
    3.4030   -1.4050    0.0000 C   0  0  0  0  0  0  0  0  0  0  0  0
    6.0218   -0.5596    0.0000 H   0  0  0  0  0  0  0  0  0  0  0  0
    6.0218    2.7496    0.0000 H   0  0  0  0  0  0  0  0  0  0  0  0
    4.2690    2.7150    0.0000 H   0  0  0  0  0  0  0  0  0  0  0  0
    7.4708    0.2621    0.0000 H   0  0  0  0  0  0  0  0  0  0  0  0
    7.4708    1.9279    0.0000 H   0  0  0  0  0  0  0  0  0  0  0  0
    2.8660   -2.7150    0.0000 H   0  0  0  0  0  0  0  0  0  0  0  0
    3.9399   -2.7150    0.0000 H   0  0  0  0  0  0  0  0  0  0  0  0
    2.0000   -1.2150    0.0000 H   0  0  0  0  0  0  0  0  0  0  0  0
    2.5369   -0.2850    0.0000 H   0  0  0  0  0  0  0  0  0  0  0  0
  1 14  2  0  0  0  0
  2  8  1  0  0  0  0
  2 14  1  0  0  0  0
  2 18  1  0  0  0  0
  3  9  2  0  0  0  0
  3 14  1  0  0  0  0
  4  9  1  0  0  0  0
  4 15  2  0  0  0  0
  5 15  1  0  0  0  0
  5 21  1  0  0  0  0
  5 22  1  0  0  0  0
  6 15  1  0  0  0  0
  6 23  1  0  0  0  0
  6 24  1  0  0  0  0
  7  8  1  0  0  0  0
  7  9  1  0  0  0  0
  7 10  2  0  0  0  0
  8 11  2  0  0  0  0
 10 12  1  0  0  0  0
 10 16  1  0  0  0  0
 11 13  1  0  0  0  0
 11 17  1  0  0  0  0
 12 13  2  0  0  0  0
 12 19  1  0  0  0  0
 13 20  1  0  0  0  0
M  END
> <PUBCHEM_COMPOUND_CID>
68605839

> <PUBCHEM_COMPOUND_CANONICALIZED>
1

> <PUBCHEM_CACTVS_COMPLEXITY>
331

> <PUBCHEM_CACTVS_HBOND_ACCEPTOR>
1

> <PUBCHEM_CACTVS_HBOND_DONOR>
3

> <PUBCHEM_CACTVS_ROTATABLE_BOND>
1

> <PUBCHEM_CACTVS_SUBSKEYS>
AAADccBzoAAAAAAAAAAAAAAAAAAAAAAAAAAwQAAAAAAAAACBAAAAHgAQAAAADAiBGAAxwILAAACoAiZidACCAAEhAgAIiAAgZJiIIKLA0ZGEIAhglAJIyCcQgAAOAAAAAAACAAAAAAAAAAQAAAAAAAAAAA==

> <PUBCHEM_IUPAC_OPENEYE_NAME>
2-(2-oxo-1H-quinazolin-4-yl)guanidine

> <PUBCHEM_IUPAC_CAS_NAME>
2-(2-oxo-1H-quinazolin-4-yl)guanidine

> <PUBCHEM_IUPAC_NAME>
2-(2-oxo-1H-quinazolin-4-yl)guanidine

> <PUBCHEM_IUPAC_SYSTEMATIC_NAME>
2-(2-oxidanylidene-1H-quinazolin-4-yl)guanidine

> <PUBCHEM_IUPAC_TRADITIONAL_NAME>
2-(2-keto-1H-quinazolin-4-yl)guanidine

> <PUBCHEM_IUPAC_INCHI>
InChI=1S/C9H9N5O/c10-8(11)13-7-5-3-1-2-4-6(5)12-9(15)14-7/h1-4H,(H5,10,11,12,13,14,15)

> <PUBCHEM_IUPAC_INCHIKEY>
YNEGKGZLMMSZTD-UHFFFAOYSA-N

> <PUBCHEM_XLOGP3>
0.1

> <PUBCHEM_EXACT_MASS>
203.08071

> <PUBCHEM_MOLECULAR_FORMULA>
C9H9N5O

> <PUBCHEM_MOLECULAR_WEIGHT>
203.20066

> <PUBCHEM_OPENEYE_CAN_SMILES>
C1=CC=C2C(=C1)C(=NC(=O)N2)N=C(N)N

> <PUBCHEM_OPENEYE_ISO_SMILES>
C1=CC=C2C(=C1)C(=NC(=O)N2)N=C(N)N

> <PUBCHEM_CACTVS_TPSA>
106

> <PUBCHEM_MONOISOTOPIC_WEIGHT>
203.08071

> <PUBCHEM_TOTAL_CHARGE>
0

> <PUBCHEM_HEAVY_ATOM_COUNT>
15

> <PUBCHEM_ATOM_DEF_STEREO_COUNT>
0

> <PUBCHEM_ATOM_UDEF_STEREO_COUNT>
0

> <PUBCHEM_BOND_DEF_STEREO_COUNT>
0

> <PUBCHEM_BOND_UDEF_STEREO_COUNT>
0

> <PUBCHEM_ISOTOPIC_ATOM_COUNT>
0

> <PUBCHEM_COMPONENT_COUNT>
1

> <PUBCHEM_CACTVS_TAUTO_COUNT>
17

> <PUBCHEM_COORDINATE_TYPE>
1
5
255

> <PUBCHEM_BONDANNOTATIONS>
10  12  8
11  13  8
12  13  8
2  14  8
2  8  8
3  14  8
3  9  8
7  10  8
7  8  8
7  9  8
8  11  8

$$$$
68614085
  -OEChem-12041212372D

 46 50  0     0  0  0  0  0  0999 V2000
    3.6730   -0.7008    0.0000 N   0  0  0  0  0  0  0  0  0  0  0  0
    3.7343    1.3828    0.0000 N   0  0  0  0  0  0  0  0  0  0  0  0
    3.6730   -1.7008    0.0000 C   0  0  0  0  0  0  0  0  0  0  0  0
    4.5092   -3.1492    0.0000 C   0  0  0  0  0  0  0  0  0  0  0  0
    2.8368   -3.1492    0.0000 C   0  0  0  0  0  0  0  0  0  0  0  0
    2.9819   -3.5842    0.0000 C   0  0  0  0  0  0  0  0  0  0  0  0
    4.5092   -2.1836    0.0000 C   0  0  0  0  0  0  0  0  0  0  0  0
    2.8368   -2.1836    0.0000 C   0  0  0  0  0  0  0  0  0  0  0  0
    2.9819   -2.5390    0.0000 C   0  0  0  0  0  0  0  0  0  0  0  0
    3.6730   -3.4519    0.0000 C   0  0  0  0  0  0  0  0  0  0  0  0
    3.8876   -4.0610    0.0000 C   0  0  0  0  0  0  0  0  0  0  0  0
    2.0000   -3.6319    0.0000 C   0  0  0  0  0  0  0  0  0  0  0  0
    4.5390   -0.2008    0.0000 C   0  0  0  0  0  0  0  0  0  0  0  0
    4.5390    0.7992    0.0000 C   0  0  0  0  0  0  0  0  0  0  0  0
    5.3438    1.3828    0.0000 C   0  0  0  0  0  0  0  0  0  0  0  0
    4.0390    2.3290    0.0000 C   0  0  0  0  0  0  0  0  0  0  0  0
    5.0390    2.3290    0.0000 C   0  0  0  0  0  0  0  0  0  0  0  0
    2.7838    1.0721    0.0000 C   0  0  0  0  0  0  0  0  0  0  0  0
    3.5390    3.1950    0.0000 C   0  0  0  0  0  0  0  0  0  0  0  0
    5.5390    3.1950    0.0000 C   0  0  0  0  0  0  0  0  0  0  0  0
    4.0390    4.0610    0.0000 C   0  0  0  0  0  0  0  0  0  0  0  0
    5.0390    4.0610    0.0000 C   0  0  0  0  0  0  0  0  0  0  0  0
    5.1016   -3.3319    0.0000 H   0  0  0  0  0  0  0  0  0  0  0  0
    3.3444   -2.7931    0.0000 H   0  0  0  0  0  0  0  0  0  0  0  0
    2.8478   -4.1896    0.0000 H   0  0  0  0  0  0  0  0  0  0  0  0
    2.6383   -2.0229    0.0000 H   0  0  0  0  0  0  0  0  0  0  0  0
    2.3885   -2.7185    0.0000 H   0  0  0  0  0  0  0  0  0  0  0  0
    2.6247   -1.6010    0.0000 H   0  0  0  0  0  0  0  0  0  0  0  0
    2.2262   -2.2913    0.0000 H   0  0  0  0  0  0  0  0  0  0  0  0
    5.1198   -2.2913    0.0000 H   0  0  0  0  0  0  0  0  0  0  0  0
    4.7212   -1.6010    0.0000 H   0  0  0  0  0  0  0  0  0  0  0  0
    1.5188   -3.2410    0.0000 H   0  0  0  0  0  0  0  0  0  0  0  0
    1.8068   -4.2211    0.0000 H   0  0  0  0  0  0  0  0  0  0  0  0
    3.5782   -4.5983    0.0000 H   0  0  0  0  0  0  0  0  0  0  0  0
    4.4127   -4.3906    0.0000 H   0  0  0  0  0  0  0  0  0  0  0  0
    3.3030   -3.9494    0.0000 H   0  0  0  0  0  0  0  0  0  0  0  0
    4.0430   -3.9494    0.0000 H   0  0  0  0  0  0  0  0  0  0  0  0
    5.0760   -0.5108    0.0000 H   0  0  0  0  0  0  0  0  0  0  0  0
    5.9331    1.1902    0.0000 H   0  0  0  0  0  0  0  0  0  0  0  0
    2.5912    1.6614    0.0000 H   0  0  0  0  0  0  0  0  0  0  0  0
    2.1944    0.8795    0.0000 H   0  0  0  0  0  0  0  0  0  0  0  0
    2.9764    0.4828    0.0000 H   0  0  0  0  0  0  0  0  0  0  0  0
    2.9190    3.1950    0.0000 H   0  0  0  0  0  0  0  0  0  0  0  0
    6.1590    3.1950    0.0000 H   0  0  0  0  0  0  0  0  0  0  0  0
    3.7290    4.5980    0.0000 H   0  0  0  0  0  0  0  0  0  0  0  0
    5.3490    4.5980    0.0000 H   0  0  0  0  0  0  0  0  0  0  0  0
  1  3  1  0  0  0  0
  1 13  2  0  0  0  0
  2 14  1  0  0  0  0
  2 16  1  0  0  0  0
  2 18  1  0  0  0  0
  3  7  1  0  0  0  0
  3  8  1  0  0  0  0
  3  9  1  0  0  0  0
  4  7  1  0  0  0  0
  4 10  1  0  0  0  0
  4 11  1  0  0  0  0
  4 23  1  0  0  0  0
  5  8  1  0  0  0  0
  5 10  1  0  0  0  0
  5 12  1  0  0  0  0
  5 24  1  0  0  0  0
  6  9  1  0  0  0  0
  6 11  1  0  0  0  0
  6 12  1  0  0  0  0
  6 25  1  0  0  0  0
  7 30  1  0  0  0  0
  7 31  1  0  0  0  0
  8 28  1  0  0  0  0
  8 29  1  0  0  0  0
  9 26  1  0  0  0  0
  9 27  1  0  0  0  0
 10 36  1  0  0  0  0
 10 37  1  0  0  0  0
 11 34  1  0  0  0  0
 11 35  1  0  0  0  0
 12 32  1  0  0  0  0
 12 33  1  0  0  0  0
 13 14  1  0  0  0  0
 13 38  1  0  0  0  0
 14 15  2  0  0  0  0
 15 17  1  0  0  0  0
 15 39  1  0  0  0  0
 16 17  1  0  0  0  0
 16 19  2  0  0  0  0
 17 20  2  0  0  0  0
 18 40  1  0  0  0  0
 18 41  1  0  0  0  0
 18 42  1  0  0  0  0
 19 21  1  0  0  0  0
 19 43  1  0  0  0  0
 20 22  1  0  0  0  0
 20 44  1  0  0  0  0
 21 22  2  0  0  0  0
 21 45  1  0  0  0  0
 22 46  1  0  0  0  0
M  END
> <PUBCHEM_COMPOUND_CID>
68614085

> <PUBCHEM_COMPOUND_CANONICALIZED>
1

> <PUBCHEM_CACTVS_COMPLEXITY>
427

> <PUBCHEM_CACTVS_HBOND_ACCEPTOR>
1

> <PUBCHEM_CACTVS_HBOND_DONOR>
0

> <PUBCHEM_CACTVS_ROTATABLE_BOND>
2

> <PUBCHEM_CACTVS_SUBSKEYS>
AAADceB7AAAAAAAAAAAAAAAAAAAAAWAAAAAwYMGDAAAAAFgB8AAAHAAAAAAADYjBHgQywPMMEACgAzRjRACCgCAhAiAI2CA4ZJgIIOLAkZGEIAhggADIyAcQgMAOAAAAAAACAAAAAASAAAQAAAAAAAAAAA==

> <PUBCHEM_IUPAC_OPENEYE_NAME>
N-(1-adamantyl)-1-(1-methylindol-2-yl)methanimine

> <PUBCHEM_IUPAC_CAS_NAME>
N-(1-adamantyl)-1-(1-methyl-2-indolyl)methanimine

> <PUBCHEM_IUPAC_NAME>
N-(1-adamantyl)-1-(1-methylindol-2-yl)methanimine

> <PUBCHEM_IUPAC_SYSTEMATIC_NAME>
N-(1-adamantyl)-1-(1-methylindol-2-yl)methanimine

> <PUBCHEM_IUPAC_TRADITIONAL_NAME>
1-adamantyl-[(1-methylindol-2-yl)methylene]amine

> <PUBCHEM_IUPAC_INCHI>
InChI=1S/C20H24N2/c1-22-18(9-17-4-2-3-5-19(17)22)13-21-20-10-14-6-15(11-20)8-16(7-14)12-20/h2-5,9,13-16H,6-8,10-12H2,1H3

> <PUBCHEM_IUPAC_INCHIKEY>
PAJZRGJQODUVSJ-UHFFFAOYSA-N

> <PUBCHEM_XLOGP3>
4.6

> <PUBCHEM_EXACT_MASS>
292.193949

> <PUBCHEM_MOLECULAR_FORMULA>
C20H24N2

> <PUBCHEM_MOLECULAR_WEIGHT>
292.41796

> <PUBCHEM_OPENEYE_CAN_SMILES>
CN1C2=CC=CC=C2C=C1C=NC34CC5CC(C3)CC(C5)C4

> <PUBCHEM_OPENEYE_ISO_SMILES>
CN1C2=CC=CC=C2C=C1C=NC34CC5CC(C3)CC(C5)C4

> <PUBCHEM_CACTVS_TPSA>
17.3

> <PUBCHEM_MONOISOTOPIC_WEIGHT>
292.193949

> <PUBCHEM_TOTAL_CHARGE>
0

> <PUBCHEM_HEAVY_ATOM_COUNT>
22

> <PUBCHEM_ATOM_DEF_STEREO_COUNT>
0

> <PUBCHEM_ATOM_UDEF_STEREO_COUNT>
0

> <PUBCHEM_BOND_DEF_STEREO_COUNT>
0

> <PUBCHEM_BOND_UDEF_STEREO_COUNT>
0

> <PUBCHEM_ISOTOPIC_ATOM_COUNT>
0

> <PUBCHEM_COMPONENT_COUNT>
1

> <PUBCHEM_CACTVS_TAUTO_COUNT>
1

> <PUBCHEM_COORDINATE_TYPE>
1
5
255

> <PUBCHEM_BONDANNOTATIONS>
14  15  8
15  17  8
16  17  8
16  19  8
17  20  8
19  21  8
2  14  8
2  16  8
20  22  8
21  22  8

$$$$
68614154
  -OEChem-12041212372D

 48 52  0     0  0  0  0  0  0999 V2000
    3.6730   -0.7008    0.0000 N   0  0  0  0  0  0  0  0  0  0  0  0
    5.3438    1.3828    0.0000 N   0  0  0  0  0  0  0  0  0  0  0  0
    3.6730   -1.7008    0.0000 C   0  0  0  0  0  0  0  0  0  0  0  0
    4.5092   -3.1492    0.0000 C   0  0  0  0  0  0  0  0  0  0  0  0
    2.8368   -3.1492    0.0000 C   0  0  0  0  0  0  0  0  0  0  0  0
    2.9819   -3.5842    0.0000 C   0  0  0  0  0  0  0  0  0  0  0  0
    4.5092   -2.1836    0.0000 C   0  0  0  0  0  0  0  0  0  0  0  0
    2.8368   -2.1836    0.0000 C   0  0  0  0  0  0  0  0  0  0  0  0
    2.9819   -2.5390    0.0000 C   0  0  0  0  0  0  0  0  0  0  0  0
    3.6730   -3.4519    0.0000 C   0  0  0  0  0  0  0  0  0  0  0  0
    3.8876   -4.0610    0.0000 C   0  0  0  0  0  0  0  0  0  0  0  0
    2.0000   -3.6319    0.0000 C   0  0  0  0  0  0  0  0  0  0  0  0
    4.5390   -0.2008    0.0000 C   0  0  0  0  0  0  0  0  0  0  0  0
    4.5390    0.7992    0.0000 C   0  0  0  0  0  0  0  0  0  0  0  0
    3.7343    1.3828    0.0000 C   0  0  0  0  0  0  0  0  0  0  0  0
    5.0390    2.3290    0.0000 C   0  0  0  0  0  0  0  0  0  0  0  0
    4.0390    2.3290    0.0000 C   0  0  0  0  0  0  0  0  0  0  0  0
    6.2943    1.0721    0.0000 C   0  0  0  0  0  0  0  0  0  0  0  0
    5.5390    3.1950    0.0000 C   0  0  0  0  0  0  0  0  0  0  0  0
    3.5390    3.1950    0.0000 C   0  0  0  0  0  0  0  0  0  0  0  0
    5.0390    4.0610    0.0000 C   0  0  0  0  0  0  0  0  0  0  0  0
    4.0390    4.0610    0.0000 C   0  0  0  0  0  0  0  0  0  0  0  0
    5.1016   -3.3319    0.0000 H   0  0  0  0  0  0  0  0  0  0  0  0
    3.3444   -2.7931    0.0000 H   0  0  0  0  0  0  0  0  0  0  0  0
    2.8478   -4.1896    0.0000 H   0  0  0  0  0  0  0  0  0  0  0  0
    5.1198   -2.2913    0.0000 H   0  0  0  0  0  0  0  0  0  0  0  0
    4.7212   -1.6010    0.0000 H   0  0  0  0  0  0  0  0  0  0  0  0
    2.6247   -1.6010    0.0000 H   0  0  0  0  0  0  0  0  0  0  0  0
    2.2262   -2.2913    0.0000 H   0  0  0  0  0  0  0  0  0  0  0  0
    2.6383   -2.0229    0.0000 H   0  0  0  0  0  0  0  0  0  0  0  0
    2.3885   -2.7185    0.0000 H   0  0  0  0  0  0  0  0  0  0  0  0
    3.3030   -3.9494    0.0000 H   0  0  0  0  0  0  0  0  0  0  0  0
    4.0430   -3.9494    0.0000 H   0  0  0  0  0  0  0  0  0  0  0  0
    3.5782   -4.5983    0.0000 H   0  0  0  0  0  0  0  0  0  0  0  0
    4.4127   -4.3906    0.0000 H   0  0  0  0  0  0  0  0  0  0  0  0
    1.5188   -3.2410    0.0000 H   0  0  0  0  0  0  0  0  0  0  0  0
    1.8068   -4.2211    0.0000 H   0  0  0  0  0  0  0  0  0  0  0  0
    3.1361   -0.3908    0.0000 H   0  0  0  0  0  0  0  0  0  0  0  0
    4.7511   -0.7834    0.0000 H   0  0  0  0  0  0  0  0  0  0  0  0
    5.1496   -0.0932    0.0000 H   0  0  0  0  0  0  0  0  0  0  0  0
    3.1450    1.1902    0.0000 H   0  0  0  0  0  0  0  0  0  0  0  0
    6.1017    0.4828    0.0000 H   0  0  0  0  0  0  0  0  0  0  0  0
    6.8836    0.8795    0.0000 H   0  0  0  0  0  0  0  0  0  0  0  0
    6.4869    1.6614    0.0000 H   0  0  0  0  0  0  0  0  0  0  0  0
    6.1590    3.1950    0.0000 H   0  0  0  0  0  0  0  0  0  0  0  0
    2.9190    3.1950    0.0000 H   0  0  0  0  0  0  0  0  0  0  0  0
    5.3490    4.5980    0.0000 H   0  0  0  0  0  0  0  0  0  0  0  0
    3.7290    4.5980    0.0000 H   0  0  0  0  0  0  0  0  0  0  0  0
  1  3  1  0  0  0  0
  1 13  1  0  0  0  0
  1 38  1  0  0  0  0
  2 14  1  0  0  0  0
  2 16  1  0  0  0  0
  2 18  1  0  0  0  0
  3  7  1  0  0  0  0
  3  8  1  0  0  0  0
  3  9  1  0  0  0  0
  4  7  1  0  0  0  0
  4 10  1  0  0  0  0
  4 11  1  0  0  0  0
  4 23  1  0  0  0  0
  5  8  1  0  0  0  0
  5 10  1  0  0  0  0
  5 12  1  0  0  0  0
  5 24  1  0  0  0  0
  6  9  1  0  0  0  0
  6 11  1  0  0  0  0
  6 12  1  0  0  0  0
  6 25  1  0  0  0  0
  7 26  1  0  0  0  0
  7 27  1  0  0  0  0
  8 28  1  0  0  0  0
  8 29  1  0  0  0  0
  9 30  1  0  0  0  0
  9 31  1  0  0  0  0
 10 32  1  0  0  0  0
 10 33  1  0  0  0  0
 11 34  1  0  0  0  0
 11 35  1  0  0  0  0
 12 36  1  0  0  0  0
 12 37  1  0  0  0  0
 13 14  1  0  0  0  0
 13 39  1  0  0  0  0
 13 40  1  0  0  0  0
 14 15  2  0  0  0  0
 15 17  1  0  0  0  0
 15 41  1  0  0  0  0
 16 17  1  0  0  0  0
 16 19  2  0  0  0  0
 17 20  2  0  0  0  0
 18 42  1  0  0  0  0
 18 43  1  0  0  0  0
 18 44  1  0  0  0  0
 19 21  1  0  0  0  0
 19 45  1  0  0  0  0
 20 22  1  0  0  0  0
 20 46  1  0  0  0  0
 21 22  2  0  0  0  0
 21 47  1  0  0  0  0
 22 48  1  0  0  0  0
M  END
> <PUBCHEM_COMPOUND_CID>
68614154

> <PUBCHEM_COMPOUND_CANONICALIZED>
1

> <PUBCHEM_CACTVS_COMPLEXITY>
390

> <PUBCHEM_CACTVS_HBOND_ACCEPTOR>
1

> <PUBCHEM_CACTVS_HBOND_DONOR>
1

> <PUBCHEM_CACTVS_ROTATABLE_BOND>
3

> <PUBCHEM_CACTVS_SUBSKEYS>
AAADceB7AAAAAAAAAAAAAAAAAAAAAWAAAAAwYMGDAAAAAFgB8AAAHAAQAAAADYjBHgQywPPMEACgAyRiRACCgCAhAiAI2KA4ZJgIYOLAkZGUIAhgkADIyAcQgMAOAAAAAAACAAAAAASAAAQAAAAAAAAAAA==

> <PUBCHEM_IUPAC_OPENEYE_NAME>
N-[(1-methylindol-2-yl)methyl]adamantan-1-amine

> <PUBCHEM_IUPAC_CAS_NAME>
N-[(1-methyl-2-indolyl)methyl]-1-adamantanamine

> <PUBCHEM_IUPAC_NAME>
N-[(1-methylindol-2-yl)methyl]adamantan-1-amine

> <PUBCHEM_IUPAC_SYSTEMATIC_NAME>
N-[(1-methylindol-2-yl)methyl]adamantan-1-amine

> <PUBCHEM_IUPAC_TRADITIONAL_NAME>
1-adamantyl-[(1-methylindol-2-yl)methyl]amine

> <PUBCHEM_IUPAC_INCHI>
InChI=1S/C20H26N2/c1-22-18(9-17-4-2-3-5-19(17)22)13-21-20-10-14-6-15(11-20)8-16(7-14)12-20/h2-5,9,14-16,21H,6-8,10-13H2,1H3

> <PUBCHEM_IUPAC_INCHIKEY>
TVAPAXZCYRKODB-UHFFFAOYSA-N

> <PUBCHEM_XLOGP3>
4.5

> <PUBCHEM_EXACT_MASS>
294.209599

> <PUBCHEM_MOLECULAR_FORMULA>
C20H26N2

> <PUBCHEM_MOLECULAR_WEIGHT>
294.43384

> <PUBCHEM_OPENEYE_CAN_SMILES>
CN1C2=CC=CC=C2C=C1CNC34CC5CC(C3)CC(C5)C4

> <PUBCHEM_OPENEYE_ISO_SMILES>
CN1C2=CC=CC=C2C=C1CNC34CC5CC(C3)CC(C5)C4

> <PUBCHEM_CACTVS_TPSA>
17

> <PUBCHEM_MONOISOTOPIC_WEIGHT>
294.209599

> <PUBCHEM_TOTAL_CHARGE>
0

> <PUBCHEM_HEAVY_ATOM_COUNT>
22

> <PUBCHEM_ATOM_DEF_STEREO_COUNT>
0

> <PUBCHEM_ATOM_UDEF_STEREO_COUNT>
0

> <PUBCHEM_BOND_DEF_STEREO_COUNT>
0

> <PUBCHEM_BOND_UDEF_STEREO_COUNT>
0

> <PUBCHEM_ISOTOPIC_ATOM_COUNT>
0

> <PUBCHEM_COMPONENT_COUNT>
1

> <PUBCHEM_CACTVS_TAUTO_COUNT>
1

> <PUBCHEM_COORDINATE_TYPE>
1
5
255

> <PUBCHEM_BONDANNOTATIONS>
14  15  8
15  17  8
16  17  8
16  19  8
17  20  8
19  21  8
2  14  8
2  16  8
20  22  8
21  22  8

$$$$
68614179
  -OEChem-12041212372D

 14 14  0     0  0  0  0  0  0999 V2000
    3.7320    1.7500    0.0000 Br  0  0  0  0  0  0  0  0  0  0  0  0
    2.0000    1.7500    0.0000 Br  0  0  0  0  0  0  0  0  0  0  0  0
    2.8660   -1.7500    0.0000 N   0  0  0  0  0  0  0  0  0  0  0  0
    2.8660    0.2500    0.0000 C   0  0  0  0  0  0  0  0  0  0  0  0
    2.8660    1.2500    0.0000 C   0  0  0  0  0  0  0  0  0  0  0  0
    2.0000   -0.2500    0.0000 C   0  0  0  0  0  0  0  0  0  0  0  0
    3.7320   -0.2500    0.0000 C   0  0  0  0  0  0  0  0  0  0  0  0
    2.0000   -1.2500    0.0000 C   0  0  0  0  0  0  0  0  0  0  0  0
    3.7320   -1.2500    0.0000 C   0  0  0  0  0  0  0  0  0  0  0  0
    2.8660    1.8700    0.0000 H   0  0  0  0  0  0  0  0  0  0  0  0
    1.4631    0.0600    0.0000 H   0  0  0  0  0  0  0  0  0  0  0  0
    4.2690    0.0600    0.0000 H   0  0  0  0  0  0  0  0  0  0  0  0
    1.4631   -1.5600    0.0000 H   0  0  0  0  0  0  0  0  0  0  0  0
    4.2690   -1.5600    0.0000 H   0  0  0  0  0  0  0  0  0  0  0  0
  1  5  1  0  0  0  0
  2  5  1  0  0  0  0
  3  8  2  0  0  0  0
  3  9  1  0  0  0  0
  4  5  1  0  0  0  0
  4  6  2  0  0  0  0
  4  7  1  0  0  0  0
  5 10  1  0  0  0  0
  6  8  1  0  0  0  0
  6 11  1  0  0  0  0
  7  9  2  0  0  0  0
  7 12  1  0  0  0  0
  8 13  1  0  0  0  0
  9 14  1  0  0  0  0
M  END
> <PUBCHEM_COMPOUND_CID>
68614179

> <PUBCHEM_COMPOUND_CANONICALIZED>
1

> <PUBCHEM_CACTVS_COMPLEXITY>
79.1

> <PUBCHEM_CACTVS_HBOND_ACCEPTOR>
1

> <PUBCHEM_CACTVS_HBOND_DONOR>
0

> <PUBCHEM_CACTVS_ROTATABLE_BOND>
1

> <PUBCHEM_CACTVS_SUBSKEYS>
AAADcYBiAAAAGAAAAAAAAAAAAAAAAAAAAAAsAAAAAAAAAAABgAAAHABAAAABTADBGgQ8gJIIEACgAjBnRACCgCAxAiAI2CA4ZLgIIGLAkZGEIAhggADIyBYQAAAKAAAAAAAAAAAAAAAAAAAAAAAAAAAAAA==

> <PUBCHEM_IUPAC_OPENEYE_NAME>
4-(dibromomethyl)pyridine

> <PUBCHEM_IUPAC_CAS_NAME>
4-(dibromomethyl)pyridine

> <PUBCHEM_IUPAC_NAME>
4-(dibromomethyl)pyridine

> <PUBCHEM_IUPAC_SYSTEMATIC_NAME>
4-[bis(bromanyl)methyl]pyridine

> <PUBCHEM_IUPAC_TRADITIONAL_NAME>
4-(dibromomethyl)pyridine

> <PUBCHEM_IUPAC_INCHI>
InChI=1S/C6H5Br2N/c7-6(8)5-1-3-9-4-2-5/h1-4,6H

> <PUBCHEM_IUPAC_INCHIKEY>
AXVZEAVTZJQILX-UHFFFAOYSA-N

> <PUBCHEM_XLOGP3>
2.3

> <PUBCHEM_EXACT_MASS>
250.876827

> <PUBCHEM_MOLECULAR_FORMULA>
C6H5Br2N

> <PUBCHEM_MOLECULAR_WEIGHT>
250.9186

> <PUBCHEM_OPENEYE_CAN_SMILES>
C1=CN=CC=C1C(Br)Br

> <PUBCHEM_OPENEYE_ISO_SMILES>
C1=CN=CC=C1C(Br)Br

> <PUBCHEM_CACTVS_TPSA>
12.9

> <PUBCHEM_MONOISOTOPIC_WEIGHT>
248.878873

> <PUBCHEM_TOTAL_CHARGE>
0

> <PUBCHEM_HEAVY_ATOM_COUNT>
9

> <PUBCHEM_ATOM_DEF_STEREO_COUNT>
0

> <PUBCHEM_ATOM_UDEF_STEREO_COUNT>
0

> <PUBCHEM_BOND_DEF_STEREO_COUNT>
0

> <PUBCHEM_BOND_UDEF_STEREO_COUNT>
0

> <PUBCHEM_ISOTOPIC_ATOM_COUNT>
0

> <PUBCHEM_COMPONENT_COUNT>
1

> <PUBCHEM_CACTVS_TAUTO_COUNT>
1

> <PUBCHEM_COORDINATE_TYPE>
1
5
255

> <PUBCHEM_BONDANNOTATIONS>
3  8  8
3  9  8
4  6  8
4  7  8
6  8  8
7  9  8

$$$$
68617659
  -OEChem-12041212372D

 51 55  0     1  0  0  0  0  0999 V2000
    2.0000    2.4522    0.0000 O   0  0  0  0  0  0  0  0  0  0  0  0
    6.6831   -2.1640    0.0000 C   0  0  2  0  0  0  0  0  0  0  0  0
    6.4739   -1.1921    0.0000 C   0  0  2  0  0  0  0  0  0  0  0  0
    7.6718   -2.2670    0.0000 C   0  0  1  0  0  0  0  0  0  0  0  0
    7.3399   -0.6921    0.0000 C   0  0  1  0  0  0  0  0  0  0  0  0
    7.0882   -3.0722    0.0000 C   0  0  0  0  0  0  0  0  0  0  0  0
    8.0770   -1.3592    0.0000 C   0  0  0  0  0  0  0  0  0  0  0  0
    5.6079   -0.6921    0.0000 C   0  0  1  0  0  0  0  0  0  0  0  0
    5.6079    0.3079    0.0000 C   0  0  2  0  0  0  0  0  0  0  0  0
    7.3399    0.3079    0.0000 C   0  0  0  0  0  0  0  0  0  0  0  0
    6.4739    0.8079    0.0000 C   0  0  0  0  0  0  0  0  0  0  0  0
    4.7140    0.8425    0.0000 C   0  0  2  0  0  0  0  0  0  0  0  0
    8.2060   -0.1921    0.0000 C   0  0  0  0  0  0  0  0  0  0  0  0
    4.7140   -1.2268    0.0000 C   0  0  0  0  0  0  0  0  0  0  0  0
    3.8079    0.3287    0.0000 C   0  0  0  0  0  0  0  0  0  0  0  0
    4.7390    1.9272    0.0000 C   0  0  0  0  0  0  0  0  0  0  0  0
    3.8079   -0.7130    0.0000 C   0  0  0  0  0  0  0  0  0  0  0  0
    5.5838    1.3358    0.0000 C   0  0  0  0  0  0  0  0  0  0  0  0
    2.8641    0.8639    0.0000 C   0  0  0  0  0  0  0  0  0  0  0  0
    3.8079    2.4842    0.0000 C   0  0  0  0  0  0  0  0  0  0  0  0
    2.8641    1.9489    0.0000 C   0  0  3  0  0  0  0  0  0  0  0  0
    5.8751   -2.4279    0.0000 H   0  0  0  0  0  0  0  0  0  0  0  0
    5.7869   -1.6926    0.0000 H   0  0  0  0  0  0  0  0  0  0  0  0
    8.4080   -2.6919    0.0000 H   0  0  0  0  0  0  0  0  0  0  0  0
    6.5744   -3.4193    0.0000 H   0  0  0  0  0  0  0  0  0  0  0  0
    7.5193   -3.5178    0.0000 H   0  0  0  0  0  0  0  0  0  0  0  0
    8.6134   -1.6700    0.0000 H   0  0  0  0  0  0  0  0  0  0  0  0
    8.4424   -0.8584    0.0000 H   0  0  0  0  0  0  0  0  0  0  0  0
    5.6144   -1.5421    0.0000 H   0  0  0  0  0  0  0  0  0  0  0  0
    6.3440   -0.1171    0.0000 H   0  0  0  0  0  0  0  0  0  0  0  0
    7.9505    0.2002    0.0000 H   0  0  0  0  0  0  0  0  0  0  0  0
    7.5520    0.8905    0.0000 H   0  0  0  0  0  0  0  0  0  0  0  0
    6.8724    1.2828    0.0000 H   0  0  0  0  0  0  0  0  0  0  0  0
    6.0754    1.2828    0.0000 H   0  0  0  0  0  0  0  0  0  0  0  0
    8.5160   -0.7291    0.0000 H   0  0  0  0  0  0  0  0  0  0  0  0
    8.7429    0.1179    0.0000 H   0  0  0  0  0  0  0  0  0  0  0  0
    7.8960    0.3448    0.0000 H   0  0  0  0  0  0  0  0  0  0  0  0
    4.3203   -1.7058    0.0000 H   0  0  0  0  0  0  0  0  0  0  0  0
    5.1185   -1.6966    0.0000 H   0  0  0  0  0  0  0  0  0  0  0  0
    5.3473    1.8070    0.0000 H   0  0  0  0  0  0  0  0  0  0  0  0
    4.9615    2.5059    0.0000 H   0  0  0  0  0  0  0  0  0  0  0  0
    3.2721   -1.0250    0.0000 H   0  0  0  0  0  0  0  0  0  0  0  0
    5.8896    0.7965    0.0000 H   0  0  0  0  0  0  0  0  0  0  0  0
    6.1231    1.6417    0.0000 H   0  0  0  0  0  0  0  0  0  0  0  0
    5.2780    1.8752    0.0000 H   0  0  0  0  0  0  0  0  0  0  0  0
    2.2532    0.9700    0.0000 H   0  0  0  0  0  0  0  0  0  0  0  0
    2.6550    0.2802    0.0000 H   0  0  0  0  0  0  0  0  0  0  0  0
    4.2125    2.9539    0.0000 H   0  0  0  0  0  0  0  0  0  0  0  0
    3.4142    2.9632    0.0000 H   0  0  0  0  0  0  0  0  0  0  0  0
    2.8677    2.5689    0.0000 H   0  0  0  0  0  0  0  0  0  0  0  0
    2.0024    3.0722    0.0000 H   0  0  0  0  0  0  0  0  0  0  0  0
  1 21  1  0  0  0  0
  1 51  1  0  0  0  0
  2  3  1  0  0  0  0
  2  4  1  0  0  0  0
  2  6  1  0  0  0  0
  2 22  1  1  0  0  0
  3  5  1  0  0  0  0
  3  8  1  0  0  0  0
  3 23  1  6  0  0  0
  4  6  1  0  0  0  0
  4  7  1  0  0  0  0
  4 24  1  1  0  0  0
  5  7  1  0  0  0  0
  5 10  1  0  0  0  0
  5 13  1  1  0  0  0
  6 25  1  0  0  0  0
  6 26  1  0  0  0  0
  7 27  1  0  0  0  0
  7 28  1  0  0  0  0
  8  9  1  0  0  0  0
  8 14  1  0  0  0  0
  8 29  1  1  0  0  0
  9 11  1  0  0  0  0
  9 12  1  0  0  0  0
  9 30  1  6  0  0  0
 10 11  1  0  0  0  0
 10 31  1  0  0  0  0
 10 32  1  0  0  0  0
 11 33  1  0  0  0  0
 11 34  1  0  0  0  0
 12 15  1  0  0  0  0
 12 16  1  0  0  0  0
 12 18  1  1  0  0  0
 13 35  1  0  0  0  0
 13 36  1  0  0  0  0
 13 37  1  0  0  0  0
 14 17  1  0  0  0  0
 14 38  1  0  0  0  0
 14 39  1  0  0  0  0
 15 17  2  0  0  0  0
 15 19  1  0  0  0  0
 16 20  1  0  0  0  0
 16 40  1  0  0  0  0
 16 41  1  0  0  0  0
 17 42  1  0  0  0  0
 18 43  1  0  0  0  0
 18 44  1  0  0  0  0
 18 45  1  0  0  0  0
 19 21  1  0  0  0  0
 19 46  1  0  0  0  0
 19 47  1  0  0  0  0
 20 21  1  0  0  0  0
 20 48  1  0  0  0  0
 20 49  1  0  0  0  0
 21 50  1  0  0  0  0
M  END
> <PUBCHEM_COMPOUND_CID>
68617659

> <PUBCHEM_COMPOUND_CANONICALIZED>
1

> <PUBCHEM_CACTVS_COMPLEXITY>
508

> <PUBCHEM_CACTVS_HBOND_ACCEPTOR>
1

> <PUBCHEM_CACTVS_HBOND_DONOR>
1

> <PUBCHEM_CACTVS_ROTATABLE_BOND>
0

> <PUBCHEM_CACTVS_SUBSKEYS>
AAADceB4IAAAAAAAAAAAAAAAGAAAAYAAAAAwYMEAAAAAAGCAAAAAGgAACAAADxSggAICAAAAAgCAAiBCAAAAAAAgAAAACAAAAAgAEAIAAQAAQAAEwAAIAAOAwPAPgAAAAAAAAADAAAQAACAAAQAACAAAAA==

> <PUBCHEM_IUPAC_INCHI>
InChI=1S/C20H30O/c1-19-7-6-17-15(18(19)16-9-12(16)11-19)4-3-13-10-14(21)5-8-20(13,17)2/h3,12,14-18,21H,4-11H2,1-2H3/t12-,14?,15+,16-,17-,18+,19+,20-/m0/s1

> <PUBCHEM_IUPAC_INCHIKEY>
KAWDQJDHIKZTCE-JMPREFRDSA-N

> <PUBCHEM_XLOGP3>
5

> <PUBCHEM_EXACT_MASS>
286.229666

> <PUBCHEM_MOLECULAR_FORMULA>
C20H30O

> <PUBCHEM_MOLECULAR_WEIGHT>
286.4516

> <PUBCHEM_OPENEYE_CAN_SMILES>
CC12CCC3C(C1C4CC4C2)CC=C5C3(CCC(C5)O)C

> <PUBCHEM_OPENEYE_ISO_SMILES>
C[C@]12CC[C@H]3[C@H]([C@@H]1[C@H]4C[C@H]4C2)CC=C5[C@@]3(CCC(C5)O)C

> <PUBCHEM_CACTVS_TPSA>
20.2

> <PUBCHEM_MONOISOTOPIC_WEIGHT>
286.229666

> <PUBCHEM_TOTAL_CHARGE>
0

> <PUBCHEM_HEAVY_ATOM_COUNT>
21

> <PUBCHEM_ATOM_DEF_STEREO_COUNT>
7

> <PUBCHEM_ATOM_UDEF_STEREO_COUNT>
1

> <PUBCHEM_BOND_DEF_STEREO_COUNT>
0

> <PUBCHEM_BOND_UDEF_STEREO_COUNT>
0

> <PUBCHEM_ISOTOPIC_ATOM_COUNT>
0

> <PUBCHEM_COMPONENT_COUNT>
1

> <PUBCHEM_CACTVS_TAUTO_COUNT>
1

> <PUBCHEM_COORDINATE_TYPE>
1
5
255

> <PUBCHEM_BONDANNOTATIONS>
21  1  3
12  18  5
2  22  5
3  23  6
4  24  5
5  13  5
8  29  5
9  30  6

$$$$
68618747
  -OEChem-12041212372D

 26 27  0     0  0  0  0  0  0999 V2000
    3.4030    0.7929    0.0000 O   0  0  0  0  0  0  0  0  0  0  0  0
    2.5369   -0.7071    0.0000 N   0  0  0  0  0  0  0  0  0  0  0  0
    5.1350    0.7929    0.0000 C   0  0  0  0  0  0  0  0  0  0  0  0
    5.8421    1.5000    0.0000 C   0  0  0  0  0  0  0  0  0  0  0  0
    4.4279    1.5000    0.0000 C   0  0  0  0  0  0  0  0  0  0  0  0
    5.1350    2.2071    0.0000 C   0  0  0  0  0  0  0  0  0  0  0  0
    5.1350   -0.2071    0.0000 C   0  0  0  0  0  0  0  0  0  0  0  0
    4.2690   -0.7071    0.0000 C   0  0  0  0  0  0  0  0  0  0  0  0
    6.0010   -0.7071    0.0000 C   0  0  0  0  0  0  0  0  0  0  0  0
    4.2690   -1.7071    0.0000 C   0  0  0  0  0  0  0  0  0  0  0  0
    6.0010   -1.7071    0.0000 C   0  0  0  0  0  0  0  0  0  0  0  0
    3.4030   -0.2071    0.0000 C   0  0  0  0  0  0  0  0  0  0  0  0
    5.1350   -2.2071    0.0000 C   0  0  0  0  0  0  0  0  0  0  0  0
    5.7078    0.5556    0.0000 H   0  0  0  0  0  0  0  0  0  0  0  0
    6.2805    1.0616    0.0000 H   0  0  0  0  0  0  0  0  0  0  0  0
    6.2805    1.9384    0.0000 H   0  0  0  0  0  0  0  0  0  0  0  0
    3.9895    1.9384    0.0000 H   0  0  0  0  0  0  0  0  0  0  0  0
    3.9895    1.0616    0.0000 H   0  0  0  0  0  0  0  0  0  0  0  0
    5.5734    2.6455    0.0000 H   0  0  0  0  0  0  0  0  0  0  0  0
    4.6966    2.6455    0.0000 H   0  0  0  0  0  0  0  0  0  0  0  0
    6.5380   -0.3971    0.0000 H   0  0  0  0  0  0  0  0  0  0  0  0
    3.7320   -2.0171    0.0000 H   0  0  0  0  0  0  0  0  0  0  0  0
    6.5380   -2.0171    0.0000 H   0  0  0  0  0  0  0  0  0  0  0  0
    5.1350   -2.8271    0.0000 H   0  0  0  0  0  0  0  0  0  0  0  0
    2.0000   -0.3971    0.0000 H   0  0  0  0  0  0  0  0  0  0  0  0
    2.5369   -1.3271    0.0000 H   0  0  0  0  0  0  0  0  0  0  0  0
  1 12  2  0  0  0  0
  2 12  1  0  0  0  0
  2 25  1  0  0  0  0
  2 26  1  0  0  0  0
  3  4  1  0  0  0  0
  3  5  1  0  0  0  0
  3  7  1  0  0  0  0
  3 14  1  0  0  0  0
  4  6  1  0  0  0  0
  4 15  1  0  0  0  0
  4 16  1  0  0  0  0
  5  6  1  0  0  0  0
  5 17  1  0  0  0  0
  5 18  1  0  0  0  0
  6 19  1  0  0  0  0
  6 20  1  0  0  0  0
  7  8  1  0  0  0  0
  7  9  2  0  0  0  0
  8 10  2  0  0  0  0
  8 12  1  0  0  0  0
  9 11  1  0  0  0  0
  9 21  1  0  0  0  0
 10 13  1  0  0  0  0
 10 22  1  0  0  0  0
 11 13  2  0  0  0  0
 11 23  1  0  0  0  0
 13 24  1  0  0  0  0
M  END
> <PUBCHEM_COMPOUND_CID>
68618747

> <PUBCHEM_COMPOUND_CANONICALIZED>
1

> <PUBCHEM_CACTVS_COMPLEXITY>
198

> <PUBCHEM_CACTVS_HBOND_ACCEPTOR>
1

> <PUBCHEM_CACTVS_HBOND_DONOR>
1

> <PUBCHEM_CACTVS_ROTATABLE_BOND>
2

> <PUBCHEM_CACTVS_SUBSKEYS>
AAADccByIAAAAAAAAAAAAAAAAABgAAAAAAAwAAAAAAAAAAABAAAAHgAQAAAADQCBmAAwAIBAAACIAiFSEACCAAAkAAAIiAEABMgIIDKAlRGAIQBggAAIiYcYiMCOgAAAAAAQAAAAAAAAACAAAAAAAAAAAA==

> <PUBCHEM_IUPAC_OPENEYE_NAME>
2-cyclobutylbenzamide

> <PUBCHEM_IUPAC_CAS_NAME>
2-cyclobutylbenzamide

> <PUBCHEM_IUPAC_NAME>
2-cyclobutylbenzamide

> <PUBCHEM_IUPAC_SYSTEMATIC_NAME>
2-cyclobutylbenzamide

> <PUBCHEM_IUPAC_TRADITIONAL_NAME>
2-cyclobutylbenzamide

> <PUBCHEM_IUPAC_INCHI>
InChI=1S/C11H13NO/c12-11(13)10-7-2-1-6-9(10)8-4-3-5-8/h1-2,6-8H,3-5H2,(H2,12,13)

> <PUBCHEM_IUPAC_INCHIKEY>
AFRSEKNWOXVHOX-UHFFFAOYSA-N

> <PUBCHEM_XLOGP3>
1.8

> <PUBCHEM_EXACT_MASS>
175.099714

> <PUBCHEM_MOLECULAR_FORMULA>
C11H13NO

> <PUBCHEM_MOLECULAR_WEIGHT>
175.22702

> <PUBCHEM_OPENEYE_CAN_SMILES>
C1CC(C1)C2=CC=CC=C2C(=O)N

> <PUBCHEM_OPENEYE_ISO_SMILES>
C1CC(C1)C2=CC=CC=C2C(=O)N

> <PUBCHEM_CACTVS_TPSA>
43.1

> <PUBCHEM_MONOISOTOPIC_WEIGHT>
175.099714

> <PUBCHEM_TOTAL_CHARGE>
0

> <PUBCHEM_HEAVY_ATOM_COUNT>
13

> <PUBCHEM_ATOM_DEF_STEREO_COUNT>
0

> <PUBCHEM_ATOM_UDEF_STEREO_COUNT>
0

> <PUBCHEM_BOND_DEF_STEREO_COUNT>
0

> <PUBCHEM_BOND_UDEF_STEREO_COUNT>
0

> <PUBCHEM_ISOTOPIC_ATOM_COUNT>
0

> <PUBCHEM_COMPONENT_COUNT>
1

> <PUBCHEM_CACTVS_TAUTO_COUNT>
2

> <PUBCHEM_COORDINATE_TYPE>
1
5
255

> <PUBCHEM_BONDANNOTATIONS>
10  13  8
11  13  8
7  8  8
7  9  8
8  10  8
9  11  8

$$$$
68618865
  -OEChem-12041212372D

 35 36  0     0  0  0  0  0  0999 V2000
    7.1962    1.4400    0.0000 O   0  0  0  0  0  0  0  0  0  0  0  0
    8.9282    1.4400    0.0000 N   0  0  0  0  0  0  0  0  0  0  0  0
    5.4641   -0.5600    0.0000 C   0  0  0  0  0  0  0  0  0  0  0  0
    6.3301   -0.0600    0.0000 C   0  0  0  0  0  0  0  0  0  0  0  0
    4.5981   -0.0600    0.0000 C   0  0  0  0  0  0  0  0  0  0  0  0
    7.1962   -0.5600    0.0000 C   0  0  0  0  0  0  0  0  0  0  0  0
    3.7320   -0.5600    0.0000 C   0  0  0  0  0  0  0  0  0  0  0  0
    8.0622   -0.0600    0.0000 C   0  0  0  0  0  0  0  0  0  0  0  0
    7.1962   -1.5600    0.0000 C   0  0  0  0  0  0  0  0  0  0  0  0
    2.8660   -0.0600    0.0000 C   0  0  0  0  0  0  0  0  0  0  0  0
    3.7320   -1.5600    0.0000 C   0  0  0  0  0  0  0  0  0  0  0  0
    8.9282   -0.5600    0.0000 C   0  0  0  0  0  0  0  0  0  0  0  0
    8.0622   -2.0600    0.0000 C   0  0  0  0  0  0  0  0  0  0  0  0
    8.9282   -1.5600    0.0000 C   0  0  0  0  0  0  0  0  0  0  0  0
    8.0622    0.9400    0.0000 C   0  0  0  0  0  0  0  0  0  0  0  0
    2.0000   -0.5600    0.0000 C   0  0  0  0  0  0  0  0  0  0  0  0
    2.8660   -2.0600    0.0000 C   0  0  0  0  0  0  0  0  0  0  0  0
    2.0000   -1.5600    0.0000 C   0  0  0  0  0  0  0  0  0  0  0  0
    5.0656   -1.0350    0.0000 H   0  0  0  0  0  0  0  0  0  0  0  0
    5.8626   -1.0350    0.0000 H   0  0  0  0  0  0  0  0  0  0  0  0
    6.7287    0.4149    0.0000 H   0  0  0  0  0  0  0  0  0  0  0  0
    5.9316    0.4149    0.0000 H   0  0  0  0  0  0  0  0  0  0  0  0
    4.9966    0.4149    0.0000 H   0  0  0  0  0  0  0  0  0  0  0  0
    4.1996    0.4149    0.0000 H   0  0  0  0  0  0  0  0  0  0  0  0
    6.6592   -1.8700    0.0000 H   0  0  0  0  0  0  0  0  0  0  0  0
    2.8660    0.5600    0.0000 H   0  0  0  0  0  0  0  0  0  0  0  0
    4.2690   -1.8700    0.0000 H   0  0  0  0  0  0  0  0  0  0  0  0
    9.4651   -0.2500    0.0000 H   0  0  0  0  0  0  0  0  0  0  0  0
    8.0622   -2.6800    0.0000 H   0  0  0  0  0  0  0  0  0  0  0  0
    9.4651   -1.8700    0.0000 H   0  0  0  0  0  0  0  0  0  0  0  0
    1.4631   -0.2500    0.0000 H   0  0  0  0  0  0  0  0  0  0  0  0
    2.8660   -2.6800    0.0000 H   0  0  0  0  0  0  0  0  0  0  0  0
    1.4631   -1.8700    0.0000 H   0  0  0  0  0  0  0  0  0  0  0  0
    8.9282    2.0600    0.0000 H   0  0  0  0  0  0  0  0  0  0  0  0
    9.4651    1.1300    0.0000 H   0  0  0  0  0  0  0  0  0  0  0  0
  1 15  2  0  0  0  0
  2 15  1  0  0  0  0
  2 34  1  0  0  0  0
  2 35  1  0  0  0  0
  3  4  1  0  0  0  0
  3  5  1  0  0  0  0
  3 19  1  0  0  0  0
  3 20  1  0  0  0  0
  4  6  1  0  0  0  0
  4 21  1  0  0  0  0
  4 22  1  0  0  0  0
  5  7  1  0  0  0  0
  5 23  1  0  0  0  0
  5 24  1  0  0  0  0
  6  8  1  0  0  0  0
  6  9  2  0  0  0  0
  7 10  2  0  0  0  0
  7 11  1  0  0  0  0
  8 12  2  0  0  0  0
  8 15  1  0  0  0  0
  9 13  1  0  0  0  0
  9 25  1  0  0  0  0
 10 16  1  0  0  0  0
 10 26  1  0  0  0  0
 11 17  2  0  0  0  0
 11 27  1  0  0  0  0
 12 14  1  0  0  0  0
 12 28  1  0  0  0  0
 13 14  2  0  0  0  0
 13 29  1  0  0  0  0
 14 30  1  0  0  0  0
 16 18  2  0  0  0  0
 16 31  1  0  0  0  0
 17 18  1  0  0  0  0
 17 32  1  0  0  0  0
 18 33  1  0  0  0  0
M  END
> <PUBCHEM_COMPOUND_CID>
68618865

> <PUBCHEM_COMPOUND_CANONICALIZED>
1

> <PUBCHEM_CACTVS_COMPLEXITY>
258

> <PUBCHEM_CACTVS_HBOND_ACCEPTOR>
1

> <PUBCHEM_CACTVS_HBOND_DONOR>
1

> <PUBCHEM_CACTVS_ROTATABLE_BOND>
5

> <PUBCHEM_CACTVS_SUBSKEYS>
AAADceB6IAAAAAAAAAAAAAAAAAAAAAAAAAAwYAAAAAAAAAABQAAAHgAQAAAADACBmAAwAIBAAACIAiFSEACCAAAkAAAIiAEABMgIIDKAlRGAIQBggAAIiYcYiMCOgAAAAAAQAAAAAAAAACAAAAAAAAAAAA==

> <PUBCHEM_IUPAC_OPENEYE_NAME>
2-(3-phenylpropyl)benzamide

> <PUBCHEM_IUPAC_CAS_NAME>
2-(3-phenylpropyl)benzamide

> <PUBCHEM_IUPAC_NAME>
2-(3-phenylpropyl)benzamide

> <PUBCHEM_IUPAC_SYSTEMATIC_NAME>
2-(3-phenylpropyl)benzamide

> <PUBCHEM_IUPAC_TRADITIONAL_NAME>
2-(3-phenylpropyl)benzamide

> <PUBCHEM_IUPAC_INCHI>
InChI=1S/C16H17NO/c17-16(18)15-12-5-4-10-14(15)11-6-9-13-7-2-1-3-8-13/h1-5,7-8,10,12H,6,9,11H2,(H2,17,18)

> <PUBCHEM_IUPAC_INCHIKEY>
VAIAMQZKXPXQBE-UHFFFAOYSA-N

> <PUBCHEM_XLOGP3>
3.1

> <PUBCHEM_EXACT_MASS>
239.131014

> <PUBCHEM_MOLECULAR_FORMULA>
C16H17NO

> <PUBCHEM_MOLECULAR_WEIGHT>
239.31228

> <PUBCHEM_OPENEYE_CAN_SMILES>
C1=CC=C(C=C1)CCCC2=CC=CC=C2C(=O)N

> <PUBCHEM_OPENEYE_ISO_SMILES>
C1=CC=C(C=C1)CCCC2=CC=CC=C2C(=O)N

> <PUBCHEM_CACTVS_TPSA>
43.1

> <PUBCHEM_MONOISOTOPIC_WEIGHT>
239.131014

> <PUBCHEM_TOTAL_CHARGE>
0

> <PUBCHEM_HEAVY_ATOM_COUNT>
18

> <PUBCHEM_ATOM_DEF_STEREO_COUNT>
0

> <PUBCHEM_ATOM_UDEF_STEREO_COUNT>
0

> <PUBCHEM_BOND_DEF_STEREO_COUNT>
0

> <PUBCHEM_BOND_UDEF_STEREO_COUNT>
0

> <PUBCHEM_ISOTOPIC_ATOM_COUNT>
0

> <PUBCHEM_COMPONENT_COUNT>
1

> <PUBCHEM_CACTVS_TAUTO_COUNT>
2

> <PUBCHEM_COORDINATE_TYPE>
1
5
255

> <PUBCHEM_BONDANNOTATIONS>
10  16  8
11  17  8
12  14  8
13  14  8
16  18  8
17  18  8
6  8  8
6  9  8
7  10  8
7  11  8
8  12  8
9  13  8

$$$$
