31215304
  -OEChem-12041211422D

 45 47  0     0  0  0  0  0  0999 V2000
    7.2101    2.8973    0.0000 Br  0  0  0  0  0  0  0  0  0  0  0  0
    7.9244   -0.4923    0.0000 O   0  0  0  0  0  0  0  0  0  0  0  0
    4.6783   -3.6710    0.0000 N   0  0  0  0  0  0  0  0  0  0  0  0
    7.5673    1.2025    0.0000 N   0  0  0  0  0  0  0  0  0  0  0  0
    4.9889   -1.1110    0.0000 C   0  0  0  0  0  0  0  0  0  0  0  0
    5.9674   -0.9048    0.0000 C   0  0  0  0  0  0  0  0  0  0  0  0
    4.6783   -2.0615    0.0000 C   0  0  0  0  0  0  0  0  0  0  0  0
    6.2781    0.0458    0.0000 C   0  0  0  0  0  0  0  0  0  0  0  0
    3.7320   -2.3662    0.0000 C   0  0  0  0  0  0  0  0  0  0  0  0
    3.7320   -3.3662    0.0000 C   0  0  0  0  0  0  0  0  0  0  0  0
    5.2619   -2.8662    0.0000 C   0  0  0  0  0  0  0  0  0  0  0  0
    7.2566    0.2520    0.0000 C   0  0  0  0  0  0  0  0  0  0  0  0
    8.5458    1.4087    0.0000 C   0  0  0  0  0  0  0  0  0  0  0  0
    2.8660   -1.8662    0.0000 C   0  0  0  0  0  0  0  0  0  0  0  0
    2.8660   -3.8662    0.0000 C   0  0  0  0  0  0  0  0  0  0  0  0
    8.8564    2.3592    0.0000 C   0  0  0  0  0  0  0  0  0  0  0  0
    6.8994    1.9468    0.0000 C   0  0  0  0  0  0  0  0  0  0  0  0
    2.0000   -2.3662    0.0000 C   0  0  0  0  0  0  0  0  0  0  0  0
    2.0000   -3.3662    0.0000 C   0  0  0  0  0  0  0  0  0  0  0  0
    8.1886    3.1035    0.0000 C   0  0  0  0  0  0  0  0  0  0  0  0
    9.8349    2.5655    0.0000 C   0  0  0  0  0  0  0  0  0  0  0  0
    8.4993    4.0541    0.0000 C   0  0  0  0  0  0  0  0  0  0  0  0
   10.1456    3.5160    0.0000 C   0  0  0  0  0  0  0  0  0  0  0  0
    9.4778    4.2603    0.0000 C   0  0  0  0  0  0  0  0  0  0  0  0
    4.9684   -0.4913    0.0000 H   0  0  0  0  0  0  0  0  0  0  0  0
    4.3751   -1.0236    0.0000 H   0  0  0  0  0  0  0  0  0  0  0  0
    5.9880   -1.5244    0.0000 H   0  0  0  0  0  0  0  0  0  0  0  0
    6.5812   -0.9921    0.0000 H   0  0  0  0  0  0  0  0  0  0  0  0
    6.2575    0.6654    0.0000 H   0  0  0  0  0  0  0  0  0  0  0  0
    5.6643    0.1331    0.0000 H   0  0  0  0  0  0  0  0  0  0  0  0
    5.8819   -2.8662    0.0000 H   0  0  0  0  0  0  0  0  0  0  0  0
    4.8709   -4.2603    0.0000 H   0  0  0  0  0  0  0  0  0  0  0  0
    8.5663    0.7891    0.0000 H   0  0  0  0  0  0  0  0  0  0  0  0
    9.1596    1.3214    0.0000 H   0  0  0  0  0  0  0  0  0  0  0  0
    2.8660   -1.2462    0.0000 H   0  0  0  0  0  0  0  0  0  0  0  0
    2.8660   -4.4862    0.0000 H   0  0  0  0  0  0  0  0  0  0  0  0
    7.3609    2.3609    0.0000 H   0  0  0  0  0  0  0  0  0  0  0  0
    6.4854    2.4083    0.0000 H   0  0  0  0  0  0  0  0  0  0  0  0
    6.4380    1.5327    0.0000 H   0  0  0  0  0  0  0  0  0  0  0  0
    1.4631   -2.0562    0.0000 H   0  0  0  0  0  0  0  0  0  0  0  0
    1.4631   -3.6762    0.0000 H   0  0  0  0  0  0  0  0  0  0  0  0
   10.2490    2.1040    0.0000 H   0  0  0  0  0  0  0  0  0  0  0  0
    8.0852    4.5155    0.0000 H   0  0  0  0  0  0  0  0  0  0  0  0
   10.7523    3.6438    0.0000 H   0  0  0  0  0  0  0  0  0  0  0  0
    9.6704    4.8496    0.0000 H   0  0  0  0  0  0  0  0  0  0  0  0
  1 20  1  0  0  0  0
  2 12  2  0  0  0  0
  3 10  1  0  0  0  0
  3 11  1  0  0  0  0
  3 32  1  0  0  0  0
  4 12  1  0  0  0  0
  4 13  1  0  0  0  0
  4 17  1  0  0  0  0
  5  6  1  0  0  0  0
  5  7  1  0  0  0  0
  5 25  1  0  0  0  0
  5 26  1  0  0  0  0
  6  8  1  0  0  0  0
  6 27  1  0  0  0  0
  6 28  1  0  0  0  0
  7  9  1  0  0  0  0
  7 11  2  0  0  0  0
  8 12  1  0  0  0  0
  8 29  1  0  0  0  0
  8 30  1  0  0  0  0
  9 10  1  0  0  0  0
  9 14  2  0  0  0  0
 10 15  2  0  0  0  0
 11 31  1  0  0  0  0
 13 16  1  0  0  0  0
 13 33  1  0  0  0  0
 13 34  1  0  0  0  0
 14 18  1  0  0  0  0
 14 35  1  0  0  0  0
 15 19  1  0  0  0  0
 15 36  1  0  0  0  0
 16 20  1  0  0  0  0
 16 21  2  0  0  0  0
 17 37  1  0  0  0  0
 17 38  1  0  0  0  0
 17 39  1  0  0  0  0
 18 19  2  0  0  0  0
 18 40  1  0  0  0  0
 19 41  1  0  0  0  0
 20 22  2  0  0  0  0
 21 23  1  0  0  0  0
 21 42  1  0  0  0  0
 22 24  1  0  0  0  0
 22 43  1  0  0  0  0
 23 24  2  0  0  0  0
 23 44  1  0  0  0  0
 24 45  1  0  0  0  0
M  END
> <PUBCHEM_COMPOUND_CID>
31215304

> <PUBCHEM_COMPOUND_CANONICALIZED>
1

> <PUBCHEM_CACTVS_COMPLEXITY>
416

> <PUBCHEM_CACTVS_HBOND_ACCEPTOR>
1

> <PUBCHEM_CACTVS_HBOND_DONOR>
1

> <PUBCHEM_CACTVS_ROTATABLE_BOND>
6

> <PUBCHEM_CACTVS_SUBSKEYS>
AAADceB7IAAAEAAAAAAAAAAAAAAAAWAAAAAwYAAAAAAAAFgB9AAAHgBQAAABrAjBngQ+wPPJkACoAzV3VACCgCAxAiQI2aE4ZLgIIPLAkZGEIAhglgDIyhcYiMCOgAAAAAACgAAAAAAAAAUAAAAAAAAAAA==

> <PUBCHEM_IUPAC_OPENEYE_NAME>
N-[(2-bromophenyl)methyl]-4-(1H-indol-3-yl)-N-methyl-butanamide

> <PUBCHEM_IUPAC_CAS_NAME>
N-[(2-bromophenyl)methyl]-4-(1H-indol-3-yl)-N-methylbutanamide

> <PUBCHEM_IUPAC_NAME>
N-[(2-bromophenyl)methyl]-4-(1H-indol-3-yl)-N-methylbutanamide

> <PUBCHEM_IUPAC_SYSTEMATIC_NAME>
N-[(2-bromophenyl)methyl]-4-(1H-indol-3-yl)-N-methyl-butanamide

> <PUBCHEM_IUPAC_TRADITIONAL_NAME>
N-(2-bromobenzyl)-4-(1H-indol-3-yl)-N-methyl-butyramide

> <PUBCHEM_IUPAC_INCHI>
InChI=1S/C20H21BrN2O/c1-23(14-16-7-2-4-10-18(16)21)20(24)12-6-8-15-13-22-19-11-5-3-9-17(15)19/h2-5,7,9-11,13,22H,6,8,12,14H2,1H3

> <PUBCHEM_IUPAC_INCHIKEY>
YKDARAAQDCMBCZ-UHFFFAOYSA-N

> <PUBCHEM_XLOGP3>
4.4

> <PUBCHEM_EXACT_MASS>
384.083725

> <PUBCHEM_MOLECULAR_FORMULA>
C20H21BrN2O

> <PUBCHEM_MOLECULAR_WEIGHT>
385.29754

> <PUBCHEM_OPENEYE_CAN_SMILES>
CN(CC1=CC=CC=C1Br)C(=O)CCCC2=CNC3=CC=CC=C32

> <PUBCHEM_OPENEYE_ISO_SMILES>
CN(CC1=CC=CC=C1Br)C(=O)CCCC2=CNC3=CC=CC=C32

> <PUBCHEM_CACTVS_TPSA>
36.1

> <PUBCHEM_MONOISOTOPIC_WEIGHT>
384.083725

> <PUBCHEM_TOTAL_CHARGE>
0

> <PUBCHEM_HEAVY_ATOM_COUNT>
24

> <PUBCHEM_ATOM_DEF_STEREO_COUNT>
0

> <PUBCHEM_ATOM_UDEF_STEREO_COUNT>
0

> <PUBCHEM_BOND_DEF_STEREO_COUNT>
0

> <PUBCHEM_BOND_UDEF_STEREO_COUNT>
0

> <PUBCHEM_ISOTOPIC_ATOM_COUNT>
0

> <PUBCHEM_COMPONENT_COUNT>
1

> <PUBCHEM_CACTVS_TAUTO_COUNT>
1

> <PUBCHEM_COORDINATE_TYPE>
1
5
255

> <PUBCHEM_BONDANNOTATIONS>
10  15  8
14  18  8
15  19  8
16  20  8
16  21  8
18  19  8
20  22  8
21  23  8
22  24  8
23  24  8
3  10  8
3  11  8
7  11  8
7  9  8
9  10  8
9  14  8

$$$$
31215305
  -OEChem-12041211422D

 39 41  0     0  0  0  0  0  0999 V2000
    5.9209    2.3190    0.0000 Br  0  0  0  0  0  0  0  0  0  0  0  0
    6.6353   -1.0707    0.0000 O   0  0  0  0  0  0  0  0  0  0  0  0
    6.2781    0.6241    0.0000 N   0  0  0  0  0  0  0  0  0  0  0  0
    4.6783   -3.0926    0.0000 N   0  0  0  0  0  0  0  0  0  0  0  0
    4.6783   -1.4831    0.0000 C   0  0  0  0  0  0  0  0  0  0  0  0
    4.9889   -0.5326    0.0000 C   0  0  0  0  0  0  0  0  0  0  0  0
    3.7321   -1.7879    0.0000 C   0  0  0  0  0  0  0  0  0  0  0  0
    3.7321   -2.7879    0.0000 C   0  0  0  0  0  0  0  0  0  0  0  0
    5.9674   -0.3264    0.0000 C   0  0  0  0  0  0  0  0  0  0  0  0
    5.2619   -2.2879    0.0000 C   0  0  0  0  0  0  0  0  0  0  0  0
    7.2566    0.8304    0.0000 C   0  0  0  0  0  0  0  0  0  0  0  0
    2.8660   -1.2879    0.0000 C   0  0  0  0  0  0  0  0  0  0  0  0
    7.5673    1.7809    0.0000 C   0  0  0  0  0  0  0  0  0  0  0  0
    2.8660   -3.2879    0.0000 C   0  0  0  0  0  0  0  0  0  0  0  0
    5.6103    1.3684    0.0000 C   0  0  0  0  0  0  0  0  0  0  0  0
    2.0000   -1.7879    0.0000 C   0  0  0  0  0  0  0  0  0  0  0  0
    2.0000   -2.7879    0.0000 C   0  0  0  0  0  0  0  0  0  0  0  0
    6.8994    2.5252    0.0000 C   0  0  0  0  0  0  0  0  0  0  0  0
    8.5458    1.9871    0.0000 C   0  0  0  0  0  0  0  0  0  0  0  0
    7.2101    3.4757    0.0000 C   0  0  0  0  0  0  0  0  0  0  0  0
    8.8564    2.9376    0.0000 C   0  0  0  0  0  0  0  0  0  0  0  0
    8.1886    3.6819    0.0000 C   0  0  0  0  0  0  0  0  0  0  0  0
    4.9684    0.0871    0.0000 H   0  0  0  0  0  0  0  0  0  0  0  0
    4.3751   -0.4453    0.0000 H   0  0  0  0  0  0  0  0  0  0  0  0
    7.2772    0.2107    0.0000 H   0  0  0  0  0  0  0  0  0  0  0  0
    7.8704    0.7430    0.0000 H   0  0  0  0  0  0  0  0  0  0  0  0
    5.8819   -2.2879    0.0000 H   0  0  0  0  0  0  0  0  0  0  0  0
    4.8709   -3.6819    0.0000 H   0  0  0  0  0  0  0  0  0  0  0  0
    2.8660   -0.6679    0.0000 H   0  0  0  0  0  0  0  0  0  0  0  0
    2.8660   -3.9079    0.0000 H   0  0  0  0  0  0  0  0  0  0  0  0
    6.0717    1.7825    0.0000 H   0  0  0  0  0  0  0  0  0  0  0  0
    5.1962    1.8299    0.0000 H   0  0  0  0  0  0  0  0  0  0  0  0
    5.1488    0.9544    0.0000 H   0  0  0  0  0  0  0  0  0  0  0  0
    1.4631   -1.4779    0.0000 H   0  0  0  0  0  0  0  0  0  0  0  0
    1.4631   -3.0979    0.0000 H   0  0  0  0  0  0  0  0  0  0  0  0
    8.9598    1.5256    0.0000 H   0  0  0  0  0  0  0  0  0  0  0  0
    6.7960    3.9372    0.0000 H   0  0  0  0  0  0  0  0  0  0  0  0
    9.4631    3.0655    0.0000 H   0  0  0  0  0  0  0  0  0  0  0  0
    8.3812    4.2712    0.0000 H   0  0  0  0  0  0  0  0  0  0  0  0
  1 18  1  0  0  0  0
  2  9  2  0  0  0  0
  3  9  1  0  0  0  0
  3 11  1  0  0  0  0
  3 15  1  0  0  0  0
  4  8  1  0  0  0  0
  4 10  1  0  0  0  0
  4 28  1  0  0  0  0
  5  6  1  0  0  0  0
  5  7  1  0  0  0  0
  5 10  2  0  0  0  0
  6  9  1  0  0  0  0
  6 23  1  0  0  0  0
  6 24  1  0  0  0  0
  7  8  1  0  0  0  0
  7 12  2  0  0  0  0
  8 14  2  0  0  0  0
 10 27  1  0  0  0  0
 11 13  1  0  0  0  0
 11 25  1  0  0  0  0
 11 26  1  0  0  0  0
 12 16  1  0  0  0  0
 12 29  1  0  0  0  0
 13 18  1  0  0  0  0
 13 19  2  0  0  0  0
 14 17  1  0  0  0  0
 14 30  1  0  0  0  0
 15 31  1  0  0  0  0
 15 32  1  0  0  0  0
 15 33  1  0  0  0  0
 16 17  2  0  0  0  0
 16 34  1  0  0  0  0
 17 35  1  0  0  0  0
 18 20  2  0  0  0  0
 19 21  1  0  0  0  0
 19 36  1  0  0  0  0
 20 22  1  0  0  0  0
 20 37  1  0  0  0  0
 21 22  2  0  0  0  0
 21 38  1  0  0  0  0
 22 39  1  0  0  0  0
M  END
> <PUBCHEM_COMPOUND_CID>
31215305

> <PUBCHEM_COMPOUND_CANONICALIZED>
1

> <PUBCHEM_CACTVS_COMPLEXITY>
389

> <PUBCHEM_CACTVS_HBOND_ACCEPTOR>
1

> <PUBCHEM_CACTVS_HBOND_DONOR>
1

> <PUBCHEM_CACTVS_ROTATABLE_BOND>
4

> <PUBCHEM_CACTVS_SUBSKEYS>
AAADceB7IAAAEAAAAAAAAAAAAAAAAWAAAAAwYAAAAAAAAFgB9AAAHgBQAAABrAjBngQ+wPPJkACoAzV3VACCgCAxAiQI2aE4ZLgIIPLAlZGEIAhglgDIyhccicCegAAAAAACgAAAAAAAAAUAAAAAAAAAAA==

> <PUBCHEM_IUPAC_OPENEYE_NAME>
N-[(2-bromophenyl)methyl]-2-(1H-indol-3-yl)-N-methyl-acetamide

> <PUBCHEM_IUPAC_CAS_NAME>
N-[(2-bromophenyl)methyl]-2-(1H-indol-3-yl)-N-methylacetamide

> <PUBCHEM_IUPAC_NAME>
N-[(2-bromophenyl)methyl]-2-(1H-indol-3-yl)-N-methylacetamide

> <PUBCHEM_IUPAC_SYSTEMATIC_NAME>
N-[(2-bromophenyl)methyl]-2-(1H-indol-3-yl)-N-methyl-ethanamide

> <PUBCHEM_IUPAC_TRADITIONAL_NAME>
N-(2-bromobenzyl)-2-(1H-indol-3-yl)-N-methyl-acetamide

> <PUBCHEM_IUPAC_INCHI>
InChI=1S/C18H17BrN2O/c1-21(12-13-6-2-4-8-16(13)19)18(22)10-14-11-20-17-9-5-3-7-15(14)17/h2-9,11,20H,10,12H2,1H3

> <PUBCHEM_IUPAC_INCHIKEY>
OOZQTPOWJFVIET-UHFFFAOYSA-N

> <PUBCHEM_XLOGP3>
3.5

> <PUBCHEM_EXACT_MASS>
356.052425

> <PUBCHEM_MOLECULAR_FORMULA>
C18H17BrN2O

> <PUBCHEM_MOLECULAR_WEIGHT>
357.24438

> <PUBCHEM_OPENEYE_CAN_SMILES>
CN(CC1=CC=CC=C1Br)C(=O)CC2=CNC3=CC=CC=C32

> <PUBCHEM_OPENEYE_ISO_SMILES>
CN(CC1=CC=CC=C1Br)C(=O)CC2=CNC3=CC=CC=C32

> <PUBCHEM_CACTVS_TPSA>
36.1

> <PUBCHEM_MONOISOTOPIC_WEIGHT>
356.052425

> <PUBCHEM_TOTAL_CHARGE>
0

> <PUBCHEM_HEAVY_ATOM_COUNT>
22

> <PUBCHEM_ATOM_DEF_STEREO_COUNT>
0

> <PUBCHEM_ATOM_UDEF_STEREO_COUNT>
0

> <PUBCHEM_BOND_DEF_STEREO_COUNT>
0

> <PUBCHEM_BOND_UDEF_STEREO_COUNT>
0

> <PUBCHEM_ISOTOPIC_ATOM_COUNT>
0

> <PUBCHEM_COMPONENT_COUNT>
1

> <PUBCHEM_CACTVS_TAUTO_COUNT>
1

> <PUBCHEM_COORDINATE_TYPE>
1
5
255

> <PUBCHEM_BONDANNOTATIONS>
12  16  8
13  18  8
13  19  8
14  17  8
16  17  8
18  20  8
19  21  8
20  22  8
21  22  8
4  10  8
4  8  8
5  10  8
5  7  8
7  12  8
7  8  8
8  14  8

$$$$
31217309
  -OEChem-12041211422D

 43 45  0     0  0  0  0  0  0999 V2000
    5.6103    1.3260    0.0000 O   0  0  0  0  0  0  0  0  0  0  0  0
    8.9541    2.8575    0.0000 N   0  0  0  0  0  0  0  0  0  0  0  0
    4.6783   -3.1350    0.0000 N   0  0  0  0  0  0  0  0  0  0  0  0
    7.2566    0.7879    0.0000 N   0  0  0  0  0  0  0  0  0  0  0  0
    4.9889   -0.5751    0.0000 C   0  0  0  0  0  0  0  0  0  0  0  0
    4.6783   -1.5256    0.0000 C   0  0  0  0  0  0  0  0  0  0  0  0
    3.7320   -1.8303    0.0000 C   0  0  0  0  0  0  0  0  0  0  0  0
    5.9674   -0.3688    0.0000 C   0  0  0  0  0  0  0  0  0  0  0  0
    8.5458    1.9446    0.0000 C   0  0  0  0  0  0  0  0  0  0  0  0
    7.5673    1.7384    0.0000 C   0  0  0  0  0  0  0  0  0  0  0  0
    3.7320   -2.8303    0.0000 C   0  0  0  0  0  0  0  0  0  0  0  0
    5.2619   -2.3303    0.0000 C   0  0  0  0  0  0  0  0  0  0  0  0
    9.9484    2.7512    0.0000 C   0  0  0  0  0  0  0  0  0  0  0  0
    6.2781    0.5817    0.0000 C   0  0  0  0  0  0  0  0  0  0  0  0
    9.2878    1.2742    0.0000 C   0  0  0  0  0  0  0  0  0  0  0  0
   10.1547    1.7727    0.0000 C   0  0  0  0  0  0  0  0  0  0  0  0
    2.8660   -1.3303    0.0000 C   0  0  0  0  0  0  0  0  0  0  0  0
    2.8660   -3.3303    0.0000 C   0  0  0  0  0  0  0  0  0  0  0  0
    8.4556    3.7244    0.0000 C   0  0  0  0  0  0  0  0  0  0  0  0
   10.6188    3.4932    0.0000 C   0  0  0  0  0  0  0  0  0  0  0  0
    2.0000   -1.8303    0.0000 C   0  0  0  0  0  0  0  0  0  0  0  0
    2.0000   -2.8303    0.0000 C   0  0  0  0  0  0  0  0  0  0  0  0
    4.9684    0.0446    0.0000 H   0  0  0  0  0  0  0  0  0  0  0  0
    4.3751   -0.4877    0.0000 H   0  0  0  0  0  0  0  0  0  0  0  0
    5.9880   -0.9885    0.0000 H   0  0  0  0  0  0  0  0  0  0  0  0
    6.5812   -0.4562    0.0000 H   0  0  0  0  0  0  0  0  0  0  0  0
    7.5467    2.3581    0.0000 H   0  0  0  0  0  0  0  0  0  0  0  0
    6.9534    1.8258    0.0000 H   0  0  0  0  0  0  0  0  0  0  0  0
    5.8819   -2.3303    0.0000 H   0  0  0  0  0  0  0  0  0  0  0  0
    4.8709   -3.7244    0.0000 H   0  0  0  0  0  0  0  0  0  0  0  0
    7.6707    0.3264    0.0000 H   0  0  0  0  0  0  0  0  0  0  0  0
    9.2219    0.6577    0.0000 H   0  0  0  0  0  0  0  0  0  0  0  0
   10.7206    1.5196    0.0000 H   0  0  0  0  0  0  0  0  0  0  0  0
    2.8660   -0.7103    0.0000 H   0  0  0  0  0  0  0  0  0  0  0  0
    2.8660   -3.9503    0.0000 H   0  0  0  0  0  0  0  0  0  0  0  0
    8.9931    4.0334    0.0000 H   0  0  0  0  0  0  0  0  0  0  0  0
    8.1465    4.2618    0.0000 H   0  0  0  0  0  0  0  0  0  0  0  0
    7.9181    3.4153    0.0000 H   0  0  0  0  0  0  0  0  0  0  0  0
   11.0789    3.0776    0.0000 H   0  0  0  0  0  0  0  0  0  0  0  0
   11.0345    3.9532    0.0000 H   0  0  0  0  0  0  0  0  0  0  0  0
   10.1588    3.9089    0.0000 H   0  0  0  0  0  0  0  0  0  0  0  0
    1.4631   -1.5203    0.0000 H   0  0  0  0  0  0  0  0  0  0  0  0
    1.4631   -3.1403    0.0000 H   0  0  0  0  0  0  0  0  0  0  0  0
  1 14  2  0  0  0  0
  2  9  1  0  0  0  0
  2 13  1  0  0  0  0
  2 19  1  0  0  0  0
  3 11  1  0  0  0  0
  3 12  1  0  0  0  0
  3 30  1  0  0  0  0
  4 10  1  0  0  0  0
  4 14  1  0  0  0  0
  4 31  1  0  0  0  0
  5  6  1  0  0  0  0
  5  8  1  0  0  0  0
  5 23  1  0  0  0  0
  5 24  1  0  0  0  0
  6  7  1  0  0  0  0
  6 12  2  0  0  0  0
  7 11  1  0  0  0  0
  7 17  2  0  0  0  0
  8 14  1  0  0  0  0
  8 25  1  0  0  0  0
  8 26  1  0  0  0  0
  9 10  1  0  0  0  0
  9 15  2  0  0  0  0
 10 27  1  0  0  0  0
 10 28  1  0  0  0  0
 11 18  2  0  0  0  0
 12 29  1  0  0  0  0
 13 16  2  0  0  0  0
 13 20  1  0  0  0  0
 15 16  1  0  0  0  0
 15 32  1  0  0  0  0
 16 33  1  0  0  0  0
 17 21  1  0  0  0  0
 17 34  1  0  0  0  0
 18 22  1  0  0  0  0
 18 35  1  0  0  0  0
 19 36  1  0  0  0  0
 19 37  1  0  0  0  0
 19 38  1  0  0  0  0
 20 39  1  0  0  0  0
 20 40  1  0  0  0  0
 20 41  1  0  0  0  0
 21 22  2  0  0  0  0
 21 42  1  0  0  0  0
 22 43  1  0  0  0  0
M  END
> <PUBCHEM_COMPOUND_CID>
31217309

> <PUBCHEM_COMPOUND_CANONICALIZED>
1

> <PUBCHEM_CACTVS_COMPLEXITY>
387

> <PUBCHEM_CACTVS_HBOND_ACCEPTOR>
1

> <PUBCHEM_CACTVS_HBOND_DONOR>
2

> <PUBCHEM_CACTVS_ROTATABLE_BOND>
5

> <PUBCHEM_CACTVS_SUBSKEYS>
AAADceB7IAAAAAAAAAAAAAAAAAAAAWLAAAAwAAAAAAAAAFgB/AAAHgAQAAAADAjBngQ+wPPNkACoAzV3VACCgCAxAiAI2aE4ZJgIYPLAkZGUIAhglgDIyAcYicCOgAAAAAACAAAAAAAAAAQAAAAAAAAAAA==

> <PUBCHEM_IUPAC_OPENEYE_NAME>
N-[(1,5-dimethylpyrrol-2-yl)methyl]-3-(1H-indol-3-yl)propanamide

> <PUBCHEM_IUPAC_CAS_NAME>
N-[(1,5-dimethyl-2-pyrrolyl)methyl]-3-(1H-indol-3-yl)propanamide

> <PUBCHEM_IUPAC_NAME>
N-[(1,5-dimethylpyrrol-2-yl)methyl]-3-(1H-indol-3-yl)propanamide

> <PUBCHEM_IUPAC_SYSTEMATIC_NAME>
N-[(1,5-dimethylpyrrol-2-yl)methyl]-3-(1H-indol-3-yl)propanamide

> <PUBCHEM_IUPAC_TRADITIONAL_NAME>
N-[(1,5-dimethylpyrrol-2-yl)methyl]-3-(1H-indol-3-yl)propionamide

> <PUBCHEM_IUPAC_INCHI>
InChI=1S/C18H21N3O/c1-13-7-9-15(21(13)2)12-20-18(22)10-8-14-11-19-17-6-4-3-5-16(14)17/h3-7,9,11,19H,8,10,12H2,1-2H3,(H,20,22)

> <PUBCHEM_IUPAC_INCHIKEY>
OZTIQIXQZVTCLK-UHFFFAOYSA-N

> <PUBCHEM_XLOGP3>
2.2

> <PUBCHEM_EXACT_MASS>
295.168462

> <PUBCHEM_MOLECULAR_FORMULA>
C18H21N3O

> <PUBCHEM_MOLECULAR_WEIGHT>
295.37884

> <PUBCHEM_OPENEYE_CAN_SMILES>
CC1=CC=C(N1C)CNC(=O)CCC2=CNC3=CC=CC=C32

> <PUBCHEM_OPENEYE_ISO_SMILES>
CC1=CC=C(N1C)CNC(=O)CCC2=CNC3=CC=CC=C32

> <PUBCHEM_CACTVS_TPSA>
49.8

> <PUBCHEM_MONOISOTOPIC_WEIGHT>
295.168462

> <PUBCHEM_TOTAL_CHARGE>
0

> <PUBCHEM_HEAVY_ATOM_COUNT>
22

> <PUBCHEM_ATOM_DEF_STEREO_COUNT>
0

> <PUBCHEM_ATOM_UDEF_STEREO_COUNT>
0

> <PUBCHEM_BOND_DEF_STEREO_COUNT>
0

> <PUBCHEM_BOND_UDEF_STEREO_COUNT>
0

> <PUBCHEM_ISOTOPIC_ATOM_COUNT>
0

> <PUBCHEM_COMPONENT_COUNT>
1

> <PUBCHEM_CACTVS_TAUTO_COUNT>
2

> <PUBCHEM_COORDINATE_TYPE>
1
5
255

> <PUBCHEM_BONDANNOTATIONS>
11  18  8
13  16  8
15  16  8
17  21  8
18  22  8
2  13  8
2  9  8
21  22  8
3  11  8
3  12  8
6  12  8
6  7  8
7  11  8
7  17  8
9  15  8

$$$$
31217413
  -OEChem-12041211422D

 46 48  0     0  0  0  0  0  0999 V2000
    7.9244   -0.8266    0.0000 O   0  0  0  0  0  0  0  0  0  0  0  0
    8.2700    2.8350    0.0000 N   0  0  0  0  0  0  0  0  0  0  0  0
    4.6783   -4.0052    0.0000 N   0  0  0  0  0  0  0  0  0  0  0  0
    7.5673    0.8682    0.0000 N   0  0  0  0  0  0  0  0  0  0  0  0
    4.9889   -1.4453    0.0000 C   0  0  0  0  0  0  0  0  0  0  0  0
    5.9674   -1.2390    0.0000 C   0  0  0  0  0  0  0  0  0  0  0  0
    4.6783   -2.3958    0.0000 C   0  0  0  0  0  0  0  0  0  0  0  0
    3.7320   -2.7005    0.0000 C   0  0  0  0  0  0  0  0  0  0  0  0
    6.2781   -0.2885    0.0000 C   0  0  0  0  0  0  0  0  0  0  0  0
    3.7320   -3.7005    0.0000 C   0  0  0  0  0  0  0  0  0  0  0  0
    8.8564    2.0250    0.0000 C   0  0  0  0  0  0  0  0  0  0  0  0
    5.2619   -3.2005    0.0000 C   0  0  0  0  0  0  0  0  0  0  0  0
    8.5458    1.0744    0.0000 C   0  0  0  0  0  0  0  0  0  0  0  0
    7.2566   -0.0823    0.0000 C   0  0  0  0  0  0  0  0  0  0  0  0
    8.8592    3.6430    0.0000 C   0  0  0  0  0  0  0  0  0  0  0  0
    2.8660   -2.2005    0.0000 C   0  0  0  0  0  0  0  0  0  0  0  0
    9.8080    2.3323    0.0000 C   0  0  0  0  0  0  0  0  0  0  0  0
    9.8098    3.3323    0.0000 C   0  0  0  0  0  0  0  0  0  0  0  0
    2.8660   -4.2005    0.0000 C   0  0  0  0  0  0  0  0  0  0  0  0
    7.2700    2.8367    0.0000 C   0  0  0  0  0  0  0  0  0  0  0  0
    2.0000   -2.7005    0.0000 C   0  0  0  0  0  0  0  0  0  0  0  0
    8.5519    4.5946    0.0000 C   0  0  0  0  0  0  0  0  0  0  0  0
    2.0000   -3.7005    0.0000 C   0  0  0  0  0  0  0  0  0  0  0  0
    4.9684   -0.8256    0.0000 H   0  0  0  0  0  0  0  0  0  0  0  0
    4.3751   -1.3579    0.0000 H   0  0  0  0  0  0  0  0  0  0  0  0
    5.9880   -1.8587    0.0000 H   0  0  0  0  0  0  0  0  0  0  0  0
    6.5812   -1.3264    0.0000 H   0  0  0  0  0  0  0  0  0  0  0  0
    6.2575    0.3311    0.0000 H   0  0  0  0  0  0  0  0  0  0  0  0
    5.6643   -0.2012    0.0000 H   0  0  0  0  0  0  0  0  0  0  0  0
    8.5663    0.4548    0.0000 H   0  0  0  0  0  0  0  0  0  0  0  0
    9.1596    0.9871    0.0000 H   0  0  0  0  0  0  0  0  0  0  0  0
    5.8819   -3.2005    0.0000 H   0  0  0  0  0  0  0  0  0  0  0  0
    4.8709   -4.5946    0.0000 H   0  0  0  0  0  0  0  0  0  0  0  0
    7.1532    1.3297    0.0000 H   0  0  0  0  0  0  0  0  0  0  0  0
   10.3090    1.9670    0.0000 H   0  0  0  0  0  0  0  0  0  0  0  0
    2.8660   -1.5805    0.0000 H   0  0  0  0  0  0  0  0  0  0  0  0
   10.3120    3.6959    0.0000 H   0  0  0  0  0  0  0  0  0  0  0  0
    2.8660   -4.8205    0.0000 H   0  0  0  0  0  0  0  0  0  0  0  0
    7.2711    3.4567    0.0000 H   0  0  0  0  0  0  0  0  0  0  0  0
    6.6501    2.8378    0.0000 H   0  0  0  0  0  0  0  0  0  0  0  0
    7.2690    2.2167    0.0000 H   0  0  0  0  0  0  0  0  0  0  0  0
    1.4631   -2.3905    0.0000 H   0  0  0  0  0  0  0  0  0  0  0  0
    9.1418    4.7851    0.0000 H   0  0  0  0  0  0  0  0  0  0  0  0
    8.3613    5.1846    0.0000 H   0  0  0  0  0  0  0  0  0  0  0  0
    7.9619    4.4040    0.0000 H   0  0  0  0  0  0  0  0  0  0  0  0
    1.4631   -4.0105    0.0000 H   0  0  0  0  0  0  0  0  0  0  0  0
  1 14  2  0  0  0  0
  2 11  1  0  0  0  0
  2 15  1  0  0  0  0
  2 20  1  0  0  0  0
  3 10  1  0  0  0  0
  3 12  1  0  0  0  0
  3 33  1  0  0  0  0
  4 13  1  0  0  0  0
  4 14  1  0  0  0  0
  4 34  1  0  0  0  0
  5  6  1  0  0  0  0
  5  7  1  0  0  0  0
  5 24  1  0  0  0  0
  5 25  1  0  0  0  0
  6  9  1  0  0  0  0
  6 26  1  0  0  0  0
  6 27  1  0  0  0  0
  7  8  1  0  0  0  0
  7 12  2  0  0  0  0
  8 10  1  0  0  0  0
  8 16  2  0  0  0  0
  9 14  1  0  0  0  0
  9 28  1  0  0  0  0
  9 29  1  0  0  0  0
 10 19  2  0  0  0  0
 11 13  1  0  0  0  0
 11 17  2  0  0  0  0
 12 32  1  0  0  0  0
 13 30  1  0  0  0  0
 13 31  1  0  0  0  0
 15 18  2  0  0  0  0
 15 22  1  0  0  0  0
 16 21  1  0  0  0  0
 16 36  1  0  0  0  0
 17 18  1  0  0  0  0
 17 35  1  0  0  0  0
 18 37  1  0  0  0  0
 19 23  1  0  0  0  0
 19 38  1  0  0  0  0
 20 39  1  0  0  0  0
 20 40  1  0  0  0  0
 20 41  1  0  0  0  0
 21 23  2  0  0  0  0
 21 42  1  0  0  0  0
 22 43  1  0  0  0  0
 22 44  1  0  0  0  0
 22 45  1  0  0  0  0
 23 46  1  0  0  0  0
M  END
> <PUBCHEM_COMPOUND_CID>
31217413

> <PUBCHEM_COMPOUND_CANONICALIZED>
1

> <PUBCHEM_CACTVS_COMPLEXITY>
400

> <PUBCHEM_CACTVS_HBOND_ACCEPTOR>
1

> <PUBCHEM_CACTVS_HBOND_DONOR>
2

> <PUBCHEM_CACTVS_ROTATABLE_BOND>
6

> <PUBCHEM_CACTVS_SUBSKEYS>
AAADceB7IAAAAAAAAAAAAAAAAAAAAWLAAAAwAAAAAAAAAFgB/AAAHgAQAAAADAjBngQ+wPPNkACoAzV3VACCgCAxAiAI2aE4ZJgIYPLAkZGUIAhglgDIyAcYiMCOgAAAAAACAAAAAAAAAAQAAAAAAAAAAA==

> <PUBCHEM_IUPAC_OPENEYE_NAME>
N-[(1,5-dimethylpyrrol-2-yl)methyl]-4-(1H-indol-3-yl)butanamide

> <PUBCHEM_IUPAC_CAS_NAME>
N-[(1,5-dimethyl-2-pyrrolyl)methyl]-4-(1H-indol-3-yl)butanamide

> <PUBCHEM_IUPAC_NAME>
N-[(1,5-dimethylpyrrol-2-yl)methyl]-4-(1H-indol-3-yl)butanamide

> <PUBCHEM_IUPAC_SYSTEMATIC_NAME>
N-[(1,5-dimethylpyrrol-2-yl)methyl]-4-(1H-indol-3-yl)butanamide

> <PUBCHEM_IUPAC_TRADITIONAL_NAME>
N-[(1,5-dimethylpyrrol-2-yl)methyl]-4-(1H-indol-3-yl)butyramide

> <PUBCHEM_IUPAC_INCHI>
InChI=1S/C19H23N3O/c1-14-10-11-16(22(14)2)13-21-19(23)9-5-6-15-12-20-18-8-4-3-7-17(15)18/h3-4,7-8,10-12,20H,5-6,9,13H2,1-2H3,(H,21,23)

> <PUBCHEM_IUPAC_INCHIKEY>
SUTLMQOQRPQQCR-UHFFFAOYSA-N

> <PUBCHEM_XLOGP3>
2.7

> <PUBCHEM_EXACT_MASS>
309.184112

> <PUBCHEM_MOLECULAR_FORMULA>
C19H23N3O

> <PUBCHEM_MOLECULAR_WEIGHT>
309.40542

> <PUBCHEM_OPENEYE_CAN_SMILES>
CC1=CC=C(N1C)CNC(=O)CCCC2=CNC3=CC=CC=C32

> <PUBCHEM_OPENEYE_ISO_SMILES>
CC1=CC=C(N1C)CNC(=O)CCCC2=CNC3=CC=CC=C32

> <PUBCHEM_CACTVS_TPSA>
49.8

> <PUBCHEM_MONOISOTOPIC_WEIGHT>
309.184112

> <PUBCHEM_TOTAL_CHARGE>
0

> <PUBCHEM_HEAVY_ATOM_COUNT>
23

> <PUBCHEM_ATOM_DEF_STEREO_COUNT>
0

> <PUBCHEM_ATOM_UDEF_STEREO_COUNT>
0

> <PUBCHEM_BOND_DEF_STEREO_COUNT>
0

> <PUBCHEM_BOND_UDEF_STEREO_COUNT>
0

> <PUBCHEM_ISOTOPIC_ATOM_COUNT>
0

> <PUBCHEM_COMPONENT_COUNT>
1

> <PUBCHEM_CACTVS_TAUTO_COUNT>
2

> <PUBCHEM_COORDINATE_TYPE>
1
5
255

> <PUBCHEM_BONDANNOTATIONS>
10  19  8
11  17  8
15  18  8
16  21  8
17  18  8
19  23  8
2  11  8
2  15  8
21  23  8
3  10  8
3  12  8
7  12  8
7  8  8
8  10  8
8  16  8

$$$$
