49712514
  -OEChem-06121221512D

 35 36  0     1  0  0  0  0  0999 V2000
    2.0000   -0.0173    0.0000 O   0  0  0  0  0  0  0  0  0  0  0  0
    3.7320   -0.0173    0.0000 N   0  0  0  0  0  0  0  0  0  0  0  0
    3.7320    0.9827    0.0000 C   0  0  3  0  0  0  0  0  0  0  0  0
    2.8660    1.4827    0.0000 C   0  0  0  0  0  0  0  0  0  0  0  0
    2.8660    2.4827    0.0000 C   0  0  0  0  0  0  0  0  0  0  0  0
    4.5981    1.4827    0.0000 C   0  0  0  0  0  0  0  0  0  0  0  0
    3.7320    2.9827    0.0000 C   0  0  0  0  0  0  0  0  0  0  0  0
    4.5981    2.4827    0.0000 C   0  0  0  0  0  0  0  0  0  0  0  0
    5.4920    0.9480    0.0000 C   0  0  0  0  0  0  0  0  0  0  0  0
    5.4920    3.0173    0.0000 C   0  0  0  0  0  0  0  0  0  0  0  0
    2.8660   -0.5173    0.0000 C   0  0  0  0  0  0  0  0  0  0  0  0
    6.3981    1.4619    0.0000 C   0  0  0  0  0  0  0  0  0  0  0  0
    6.3981    2.5035    0.0000 C   0  0  0  0  0  0  0  0  0  0  0  0
    2.8660   -1.5173    0.0000 C   0  0  0  0  0  0  0  0  0  0  0  0
    2.0000   -2.0173    0.0000 C   0  0  0  0  0  0  0  0  0  0  0  0
    2.0000   -3.0173    0.0000 C   0  0  0  0  0  0  0  0  0  0  0  0
    4.2690    0.6727    0.0000 H   0  0  0  0  0  0  0  0  0  0  0  0
    2.2554    1.5903    0.0000 H   0  0  0  0  0  0  0  0  0  0  0  0
    2.6540    0.9001    0.0000 H   0  0  0  0  0  0  0  0  0  0  0  0
    2.6540    3.0653    0.0000 H   0  0  0  0  0  0  0  0  0  0  0  0
    2.2554    2.3750    0.0000 H   0  0  0  0  0  0  0  0  0  0  0  0
    4.1306    3.4576    0.0000 H   0  0  0  0  0  0  0  0  0  0  0  0
    3.3335    3.4576    0.0000 H   0  0  0  0  0  0  0  0  0  0  0  0
    4.2690   -0.3273    0.0000 H   0  0  0  0  0  0  0  0  0  0  0  0
    5.4848    0.3280    0.0000 H   0  0  0  0  0  0  0  0  0  0  0  0
    5.4848    3.6373    0.0000 H   0  0  0  0  0  0  0  0  0  0  0  0
    6.9338    1.1498    0.0000 H   0  0  0  0  0  0  0  0  0  0  0  0
    6.9338    2.8156    0.0000 H   0  0  0  0  0  0  0  0  0  0  0  0
    3.0781   -2.0999    0.0000 H   0  0  0  0  0  0  0  0  0  0  0  0
    3.4766   -1.4097    0.0000 H   0  0  0  0  0  0  0  0  0  0  0  0
    1.7880   -1.4347    0.0000 H   0  0  0  0  0  0  0  0  0  0  0  0
    1.3894   -2.1250    0.0000 H   0  0  0  0  0  0  0  0  0  0  0  0
    1.3800   -3.0173    0.0000 H   0  0  0  0  0  0  0  0  0  0  0  0
    2.0000   -3.6373    0.0000 H   0  0  0  0  0  0  0  0  0  0  0  0
    2.6200   -3.0173    0.0000 H   0  0  0  0  0  0  0  0  0  0  0  0
  1 11  2  0  0  0  0
  2  3  1  0  0  0  0
  2 11  1  0  0  0  0
  2 24  1  0  0  0  0
  3  4  1  0  0  0  0
  3  6  1  0  0  0  0
  3 17  1  0  0  0  0
  4  5  1  0  0  0  0
  4 18  1  0  0  0  0
  4 19  1  0  0  0  0
  5  7  1  0  0  0  0
  5 20  1  0  0  0  0
  5 21  1  0  0  0  0
  6  8  1  0  0  0  0
  6  9  2  0  0  0  0
  7  8  1  0  0  0  0
  7 22  1  0  0  0  0
  7 23  1  0  0  0  0
  8 10  2  0  0  0  0
  9 12  1  0  0  0  0
  9 25  1  0  0  0  0
 10 13  1  0  0  0  0
 10 26  1  0  0  0  0
 11 14  1  0  0  0  0
 12 13  2  0  0  0  0
 12 27  1  0  0  0  0
 13 28  1  0  0  0  0
 14 15  1  0  0  0  0
 14 29  1  0  0  0  0
 14 30  1  0  0  0  0
 15 16  1  0  0  0  0
 15 31  1  0  0  0  0
 15 32  1  0  0  0  0
 16 33  1  0  0  0  0
 16 34  1  0  0  0  0
 16 35  1  0  0  0  0
M  END
> <PUBCHEM_COMPOUND_CID>
49712514

> <PUBCHEM_COMPOUND_CANONICALIZED>
1

> <PUBCHEM_CACTVS_COMPLEXITY>
239

> <PUBCHEM_CACTVS_HBOND_ACCEPTOR>
1

> <PUBCHEM_CACTVS_HBOND_DONOR>
1

> <PUBCHEM_CACTVS_ROTATABLE_BOND>
3

> <PUBCHEM_CACTVS_SUBSKEYS>
AAADceByIAAAAAAAAAAAAAAAAAAAAAAAAAAwYAAAAAAAAADBAAAAHgAQAAAADCjBmAQyAILAAACIAiFSEACCAAAgAAAIiIEIBIgIIDKAkRGEIAhglgCIiAcQgIAOgAAAAAAQAAAAAACAACQAAAAAAAAAAA==

> <PUBCHEM_IUPAC_OPENEYE_NAME>
N-tetralin-1-ylbutanamide

> <PUBCHEM_IUPAC_CAS_NAME>
N-(1,2,3,4-tetrahydronaphthalen-1-yl)butanamide

> <PUBCHEM_IUPAC_NAME>
N-(1,2,3,4-tetrahydronaphthalen-1-yl)butanamide

> <PUBCHEM_IUPAC_SYSTEMATIC_NAME>
N-(1,2,3,4-tetrahydronaphthalen-1-yl)butanamide

> <PUBCHEM_IUPAC_TRADITIONAL_NAME>
N-tetralin-1-ylbutyramide

> <PUBCHEM_IUPAC_INCHI>
InChI=1S/C14H19NO/c1-2-6-14(16)15-13-10-5-8-11-7-3-4-9-12(11)13/h3-4,7,9,13H,2,5-6,8,10H2,1H3,(H,15,16)

> <PUBCHEM_IUPAC_INCHIKEY>
USMPURSJYSHMKL-UHFFFAOYSA-N

> <PUBCHEM_XLOGP3>
3.1

> <PUBCHEM_EXACT_MASS>
217.146664

> <PUBCHEM_MOLECULAR_FORMULA>
C14H19NO

> <PUBCHEM_MOLECULAR_WEIGHT>
217.30676

> <PUBCHEM_OPENEYE_CAN_SMILES>
CCCC(=O)NC1CCCC2=CC=CC=C12

> <PUBCHEM_OPENEYE_ISO_SMILES>
CCCC(=O)NC1CCCC2=CC=CC=C12

> <PUBCHEM_CACTVS_TPSA>
29.1

> <PUBCHEM_MONOISOTOPIC_WEIGHT>
217.146664

> <PUBCHEM_TOTAL_CHARGE>
0

> <PUBCHEM_HEAVY_ATOM_COUNT>
16

> <PUBCHEM_ATOM_DEF_STEREO_COUNT>
0

> <PUBCHEM_ATOM_UDEF_STEREO_COUNT>
1

> <PUBCHEM_BOND_DEF_STEREO_COUNT>
0

> <PUBCHEM_BOND_UDEF_STEREO_COUNT>
0

> <PUBCHEM_ISOTOPIC_ATOM_COUNT>
0

> <PUBCHEM_COMPONENT_COUNT>
1

> <PUBCHEM_CACTVS_TAUTO_COUNT>
2

> <PUBCHEM_COORDINATE_TYPE>
1
5
255

> <PUBCHEM_BONDANNOTATIONS>
10  13  8
12  13  8
3  2  3
6  8  8
6  9  8
8  10  8
9  12  8

$$$$
49712515
  -OEChem-06121221512D

 32 33  0     1  0  0  0  0  0999 V2000
    2.0000   -0.5173    0.0000 O   0  0  0  0  0  0  0  0  0  0  0  0
    3.7320   -0.5173    0.0000 N   0  0  0  0  0  0  0  0  0  0  0  0
    3.7320    0.4827    0.0000 C   0  0  3  0  0  0  0  0  0  0  0  0
    2.8660    0.9827    0.0000 C   0  0  0  0  0  0  0  0  0  0  0  0
    2.8660    1.9827    0.0000 C   0  0  0  0  0  0  0  0  0  0  0  0
    4.5981    0.9827    0.0000 C   0  0  0  0  0  0  0  0  0  0  0  0
    3.7320    2.4827    0.0000 C   0  0  0  0  0  0  0  0  0  0  0  0
    4.5981    1.9827    0.0000 C   0  0  0  0  0  0  0  0  0  0  0  0
    5.4920    0.4480    0.0000 C   0  0  0  0  0  0  0  0  0  0  0  0
    5.4920    2.5173    0.0000 C   0  0  0  0  0  0  0  0  0  0  0  0
    2.8660   -1.0173    0.0000 C   0  0  0  0  0  0  0  0  0  0  0  0
    6.3981    0.9619    0.0000 C   0  0  0  0  0  0  0  0  0  0  0  0
    6.3981    2.0035    0.0000 C   0  0  0  0  0  0  0  0  0  0  0  0
    2.8660   -2.0173    0.0000 C   0  0  0  0  0  0  0  0  0  0  0  0
    2.0000   -2.5173    0.0000 C   0  0  0  0  0  0  0  0  0  0  0  0
    4.2690    0.1727    0.0000 H   0  0  0  0  0  0  0  0  0  0  0  0
    2.2554    1.0903    0.0000 H   0  0  0  0  0  0  0  0  0  0  0  0
    2.6540    0.4001    0.0000 H   0  0  0  0  0  0  0  0  0  0  0  0
    2.6540    2.5653    0.0000 H   0  0  0  0  0  0  0  0  0  0  0  0
    2.2554    1.8750    0.0000 H   0  0  0  0  0  0  0  0  0  0  0  0
    4.1306    2.9576    0.0000 H   0  0  0  0  0  0  0  0  0  0  0  0
    3.3335    2.9576    0.0000 H   0  0  0  0  0  0  0  0  0  0  0  0
    4.2690   -0.8273    0.0000 H   0  0  0  0  0  0  0  0  0  0  0  0
    5.4848   -0.1720    0.0000 H   0  0  0  0  0  0  0  0  0  0  0  0
    5.4848    3.1373    0.0000 H   0  0  0  0  0  0  0  0  0  0  0  0
    6.9338    0.6498    0.0000 H   0  0  0  0  0  0  0  0  0  0  0  0
    6.9338    2.3156    0.0000 H   0  0  0  0  0  0  0  0  0  0  0  0
    3.0781   -2.5999    0.0000 H   0  0  0  0  0  0  0  0  0  0  0  0
    3.4766   -1.9097    0.0000 H   0  0  0  0  0  0  0  0  0  0  0  0
    1.6900   -1.9804    0.0000 H   0  0  0  0  0  0  0  0  0  0  0  0
    1.4631   -2.8273    0.0000 H   0  0  0  0  0  0  0  0  0  0  0  0
    2.3100   -3.0543    0.0000 H   0  0  0  0  0  0  0  0  0  0  0  0
  1 11  2  0  0  0  0
  2  3  1  0  0  0  0
  2 11  1  0  0  0  0
  2 23  1  0  0  0  0
  3  4  1  0  0  0  0
  3  6  1  0  0  0  0
  3 16  1  0  0  0  0
  4  5  1  0  0  0  0
  4 17  1  0  0  0  0
  4 18  1  0  0  0  0
  5  7  1  0  0  0  0
  5 19  1  0  0  0  0
  5 20  1  0  0  0  0
  6  8  1  0  0  0  0
  6  9  2  0  0  0  0
  7  8  1  0  0  0  0
  7 21  1  0  0  0  0
  7 22  1  0  0  0  0
  8 10  2  0  0  0  0
  9 12  1  0  0  0  0
  9 24  1  0  0  0  0
 10 13  1  0  0  0  0
 10 25  1  0  0  0  0
 11 14  1  0  0  0  0
 12 13  2  0  0  0  0
 12 26  1  0  0  0  0
 13 27  1  0  0  0  0
 14 15  1  0  0  0  0
 14 28  1  0  0  0  0
 14 29  1  0  0  0  0
 15 30  1  0  0  0  0
 15 31  1  0  0  0  0
 15 32  1  0  0  0  0
M  END
> <PUBCHEM_COMPOUND_CID>
49712515

> <PUBCHEM_COMPOUND_CANONICALIZED>
1

> <PUBCHEM_CACTVS_COMPLEXITY>
227

> <PUBCHEM_CACTVS_HBOND_ACCEPTOR>
1

> <PUBCHEM_CACTVS_HBOND_DONOR>
1

> <PUBCHEM_CACTVS_ROTATABLE_BOND>
2

> <PUBCHEM_CACTVS_SUBSKEYS>
AAADceByIAAAAAAAAAAAAAAAAAAAAAAAAAAwYAAAAAAAAADBAAAAHgAQAAAADCjBmAQyAILAAACIAiFSEACCAAAgAAAIiIEIBIgIICKAkRGEIAhglgCIiAcQgIAOgAAAAAAQAAAAAACAACQAAAAAAAAAAA==

> <PUBCHEM_IUPAC_OPENEYE_NAME>
N-tetralin-1-ylpropanamide

> <PUBCHEM_IUPAC_CAS_NAME>
N-(1,2,3,4-tetrahydronaphthalen-1-yl)propanamide

> <PUBCHEM_IUPAC_NAME>
N-(1,2,3,4-tetrahydronaphthalen-1-yl)propanamide

> <PUBCHEM_IUPAC_SYSTEMATIC_NAME>
N-(1,2,3,4-tetrahydronaphthalen-1-yl)propanamide

> <PUBCHEM_IUPAC_TRADITIONAL_NAME>
N-tetralin-1-ylpropionamide

> <PUBCHEM_IUPAC_INCHI>
InChI=1S/C13H17NO/c1-2-13(15)14-12-9-5-7-10-6-3-4-8-11(10)12/h3-4,6,8,12H,2,5,7,9H2,1H3,(H,14,15)

> <PUBCHEM_IUPAC_INCHIKEY>
LGJZXTSRRXADSU-UHFFFAOYSA-N

> <PUBCHEM_XLOGP3>
2.8

> <PUBCHEM_EXACT_MASS>
203.131014

> <PUBCHEM_MOLECULAR_FORMULA>
C13H17NO

> <PUBCHEM_MOLECULAR_WEIGHT>
203.28018

> <PUBCHEM_OPENEYE_CAN_SMILES>
CCC(=O)NC1CCCC2=CC=CC=C12

> <PUBCHEM_OPENEYE_ISO_SMILES>
CCC(=O)NC1CCCC2=CC=CC=C12

> <PUBCHEM_CACTVS_TPSA>
29.1

> <PUBCHEM_MONOISOTOPIC_WEIGHT>
203.131014

> <PUBCHEM_TOTAL_CHARGE>
0

> <PUBCHEM_HEAVY_ATOM_COUNT>
15

> <PUBCHEM_ATOM_DEF_STEREO_COUNT>
0

> <PUBCHEM_ATOM_UDEF_STEREO_COUNT>
1

> <PUBCHEM_BOND_DEF_STEREO_COUNT>
0

> <PUBCHEM_BOND_UDEF_STEREO_COUNT>
0

> <PUBCHEM_ISOTOPIC_ATOM_COUNT>
0

> <PUBCHEM_COMPONENT_COUNT>
1

> <PUBCHEM_CACTVS_TAUTO_COUNT>
2

> <PUBCHEM_COORDINATE_TYPE>
1
5
255

> <PUBCHEM_BONDANNOTATIONS>
10  13  8
12  13  8
3  2  3
6  8  8
6  9  8
8  10  8
9  12  8

$$$$
49712516
  -OEChem-06121221512D

 38 39  0     1  0  0  0  0  0999 V2000
    2.8660   -0.0173    0.0000 O   0  0  0  0  0  0  0  0  0  0  0  0
    4.5981   -0.0173    0.0000 N   0  0  0  0  0  0  0  0  0  0  0  0
    4.5981    0.9827    0.0000 C   0  0  3  0  0  0  0  0  0  0  0  0
    3.7320    1.4827    0.0000 C   0  0  0  0  0  0  0  0  0  0  0  0
    3.7320    2.4827    0.0000 C   0  0  0  0  0  0  0  0  0  0  0  0
    5.4641    1.4827    0.0000 C   0  0  0  0  0  0  0  0  0  0  0  0
    4.5981    2.9827    0.0000 C   0  0  0  0  0  0  0  0  0  0  0  0
    5.4641    2.4827    0.0000 C   0  0  0  0  0  0  0  0  0  0  0  0
    6.3580    0.9480    0.0000 C   0  0  0  0  0  0  0  0  0  0  0  0
    6.3580    3.0173    0.0000 C   0  0  0  0  0  0  0  0  0  0  0  0
    3.7320   -1.5173    0.0000 C   0  0  0  0  0  0  0  0  0  0  0  0
    3.7320   -0.5173    0.0000 C   0  0  0  0  0  0  0  0  0  0  0  0
    2.8660   -2.0173    0.0000 C   0  0  0  0  0  0  0  0  0  0  0  0
    7.2641    1.4619    0.0000 C   0  0  0  0  0  0  0  0  0  0  0  0
    7.2641    2.5035    0.0000 C   0  0  0  0  0  0  0  0  0  0  0  0
    2.8660   -3.0173    0.0000 C   0  0  0  0  0  0  0  0  0  0  0  0
    2.0000   -1.5173    0.0000 C   0  0  0  0  0  0  0  0  0  0  0  0
    5.1350    0.6727    0.0000 H   0  0  0  0  0  0  0  0  0  0  0  0
    3.1215    1.5903    0.0000 H   0  0  0  0  0  0  0  0  0  0  0  0
    3.5200    0.9001    0.0000 H   0  0  0  0  0  0  0  0  0  0  0  0
    3.5200    3.0653    0.0000 H   0  0  0  0  0  0  0  0  0  0  0  0
    3.1215    2.3750    0.0000 H   0  0  0  0  0  0  0  0  0  0  0  0
    4.9966    3.4576    0.0000 H   0  0  0  0  0  0  0  0  0  0  0  0
    4.1996    3.4576    0.0000 H   0  0  0  0  0  0  0  0  0  0  0  0
    5.1350   -0.3273    0.0000 H   0  0  0  0  0  0  0  0  0  0  0  0
    6.3509    0.3280    0.0000 H   0  0  0  0  0  0  0  0  0  0  0  0
    6.3509    3.6373    0.0000 H   0  0  0  0  0  0  0  0  0  0  0  0
    3.9441   -2.0999    0.0000 H   0  0  0  0  0  0  0  0  0  0  0  0
    4.3426   -1.4097    0.0000 H   0  0  0  0  0  0  0  0  0  0  0  0
    2.8660   -1.3973    0.0000 H   0  0  0  0  0  0  0  0  0  0  0  0
    7.7998    1.1498    0.0000 H   0  0  0  0  0  0  0  0  0  0  0  0
    7.7998    2.8156    0.0000 H   0  0  0  0  0  0  0  0  0  0  0  0
    2.3100   -0.9804    0.0000 H   0  0  0  0  0  0  0  0  0  0  0  0
    2.2460   -3.0173    0.0000 H   0  0  0  0  0  0  0  0  0  0  0  0
    2.8660   -3.6373    0.0000 H   0  0  0  0  0  0  0  0  0  0  0  0
    3.4860   -3.0173    0.0000 H   0  0  0  0  0  0  0  0  0  0  0  0
    1.4631   -1.2073    0.0000 H   0  0  0  0  0  0  0  0  0  0  0  0
    1.6900   -2.0543    0.0000 H   0  0  0  0  0  0  0  0  0  0  0  0
  1 12  2  0  0  0  0
  2  3  1  0  0  0  0
  2 12  1  0  0  0  0
  2 25  1  0  0  0  0
  3  4  1  0  0  0  0
  3  6  1  0  0  0  0
  3 18  1  0  0  0  0
  4  5  1  0  0  0  0
  4 19  1  0  0  0  0
  4 20  1  0  0  0  0
  5  7  1  0  0  0  0
  5 21  1  0  0  0  0
  5 22  1  0  0  0  0
  6  8  1  0  0  0  0
  6  9  2  0  0  0  0
  7  8  1  0  0  0  0
  7 23  1  0  0  0  0
  7 24  1  0  0  0  0
  8 10  2  0  0  0  0
  9 14  1  0  0  0  0
  9 26  1  0  0  0  0
 10 15  1  0  0  0  0
 10 27  1  0  0  0  0
 11 12  1  0  0  0  0
 11 13  1  0  0  0  0
 11 28  1  0  0  0  0
 11 29  1  0  0  0  0
 13 16  1  0  0  0  0
 13 17  1  0  0  0  0
 13 30  1  0  0  0  0
 14 15  2  0  0  0  0
 14 31  1  0  0  0  0
 15 32  1  0  0  0  0
 16 34  1  0  0  0  0
 16 35  1  0  0  0  0
 16 36  1  0  0  0  0
 17 33  1  0  0  0  0
 17 37  1  0  0  0  0
 17 38  1  0  0  0  0
M  END
> <PUBCHEM_COMPOUND_CID>
49712516

> <PUBCHEM_COMPOUND_CANONICALIZED>
1

> <PUBCHEM_CACTVS_COMPLEXITY>
262

> <PUBCHEM_CACTVS_HBOND_ACCEPTOR>
1

> <PUBCHEM_CACTVS_HBOND_DONOR>
1

> <PUBCHEM_CACTVS_ROTATABLE_BOND>
3

> <PUBCHEM_CACTVS_SUBSKEYS>
AAADceByIAAAAAAAAAAAAAAAAAAAAAAAAAAwYAAAAAAAAADBAAAAHgAQAAAADSjBmAQyAILAAACIAiFSEACCAAAgAAAIiIEIBIgIIDKAkRGEIAhglgCIiAcQgIAOgAAAAAAQAAAAAACAACQAAAAAAAAAAA==

> <PUBCHEM_IUPAC_OPENEYE_NAME>
3-methyl-N-tetralin-1-yl-butanamide

> <PUBCHEM_IUPAC_CAS_NAME>
3-methyl-N-(1,2,3,4-tetrahydronaphthalen-1-yl)butanamide

> <PUBCHEM_IUPAC_NAME>
3-methyl-N-(1,2,3,4-tetrahydronaphthalen-1-yl)butanamide

> <PUBCHEM_IUPAC_SYSTEMATIC_NAME>
3-methyl-N-(1,2,3,4-tetrahydronaphthalen-1-yl)butanamide

> <PUBCHEM_IUPAC_TRADITIONAL_NAME>
3-methyl-N-tetralin-1-yl-butyramide

> <PUBCHEM_IUPAC_INCHI>
InChI=1S/C15H21NO/c1-11(2)10-15(17)16-14-9-5-7-12-6-3-4-8-13(12)14/h3-4,6,8,11,14H,5,7,9-10H2,1-2H3,(H,16,17)

> <PUBCHEM_IUPAC_INCHIKEY>
VTJODIKKIQYMBA-UHFFFAOYSA-N

> <PUBCHEM_XLOGP3>
3.6

> <PUBCHEM_EXACT_MASS>
231.162314

> <PUBCHEM_MOLECULAR_FORMULA>
C15H21NO

> <PUBCHEM_MOLECULAR_WEIGHT>
231.33334

> <PUBCHEM_OPENEYE_CAN_SMILES>
CC(C)CC(=O)NC1CCCC2=CC=CC=C12

> <PUBCHEM_OPENEYE_ISO_SMILES>
CC(C)CC(=O)NC1CCCC2=CC=CC=C12

> <PUBCHEM_CACTVS_TPSA>
29.1

> <PUBCHEM_MONOISOTOPIC_WEIGHT>
231.162314

> <PUBCHEM_TOTAL_CHARGE>
0

> <PUBCHEM_HEAVY_ATOM_COUNT>
17

> <PUBCHEM_ATOM_DEF_STEREO_COUNT>
0

> <PUBCHEM_ATOM_UDEF_STEREO_COUNT>
1

> <PUBCHEM_BOND_DEF_STEREO_COUNT>
0

> <PUBCHEM_BOND_UDEF_STEREO_COUNT>
0

> <PUBCHEM_ISOTOPIC_ATOM_COUNT>
0

> <PUBCHEM_COMPONENT_COUNT>
1

> <PUBCHEM_CACTVS_TAUTO_COUNT>
2

> <PUBCHEM_COORDINATE_TYPE>
1
5
255

> <PUBCHEM_BONDANNOTATIONS>
10  15  8
14  15  8
3  2  3
6  8  8
6  9  8
8  10  8
9  14  8

$$$$
49719474
  -OEChem-06121221512D

 26 27  0     0  0  0  0  0  0999 V2000
    6.6353    0.0304    0.0000 O   0  0  0  0  0  0  0  0  0  0  0  0
    4.6783   -0.3820    0.0000 N   0  0  0  0  0  0  0  0  0  0  0  0
    6.2781    1.7253    0.0000 N   0  0  0  0  0  0  0  0  0  0  0  0
    3.7320   -0.6867    0.0000 C   0  0  0  0  0  0  0  0  0  0  0  0
    3.7320   -1.6867    0.0000 C   0  0  0  0  0  0  0  0  0  0  0  0
    4.9889    0.5685    0.0000 C   0  0  0  0  0  0  0  0  0  0  0  0
    5.2619   -1.1867    0.0000 C   0  0  0  0  0  0  0  0  0  0  0  0
    4.6783   -1.9915    0.0000 C   0  0  0  0  0  0  0  0  0  0  0  0
    2.8660   -0.1867    0.0000 C   0  0  0  0  0  0  0  0  0  0  0  0
    2.8660   -2.1867    0.0000 C   0  0  0  0  0  0  0  0  0  0  0  0
    5.9674    0.7747    0.0000 C   0  0  0  0  0  0  0  0  0  0  0  0
    2.0000   -0.6867    0.0000 C   0  0  0  0  0  0  0  0  0  0  0  0
    2.0000   -1.6867    0.0000 C   0  0  0  0  0  0  0  0  0  0  0  0
    7.2566    1.9315    0.0000 C   0  0  0  0  0  0  0  0  0  0  0  0
    4.9684    1.1882    0.0000 H   0  0  0  0  0  0  0  0  0  0  0  0
    4.3751    0.6559    0.0000 H   0  0  0  0  0  0  0  0  0  0  0  0
    5.8819   -1.1867    0.0000 H   0  0  0  0  0  0  0  0  0  0  0  0
    4.8709   -2.5808    0.0000 H   0  0  0  0  0  0  0  0  0  0  0  0
    2.8660    0.4333    0.0000 H   0  0  0  0  0  0  0  0  0  0  0  0
    2.8660   -2.8067    0.0000 H   0  0  0  0  0  0  0  0  0  0  0  0
    1.4631   -0.3767    0.0000 H   0  0  0  0  0  0  0  0  0  0  0  0
    1.4631   -1.9967    0.0000 H   0  0  0  0  0  0  0  0  0  0  0  0
    5.8640    2.1867    0.0000 H   0  0  0  0  0  0  0  0  0  0  0  0
    7.3845    1.3248    0.0000 H   0  0  0  0  0  0  0  0  0  0  0  0
    7.8633    2.0593    0.0000 H   0  0  0  0  0  0  0  0  0  0  0  0
    7.1288    2.5382    0.0000 H   0  0  0  0  0  0  0  0  0  0  0  0
  1 11  2  0  0  0  0
  2  4  1  0  0  0  0
  2  6  1  0  0  0  0
  2  7  1  0  0  0  0
  3 11  1  0  0  0  0
  3 14  1  0  0  0  0
  3 23  1  0  0  0  0
  4  5  1  0  0  0  0
  4  9  2  0  0  0  0
  5  8  1  0  0  0  0
  5 10  2  0  0  0  0
  6 11  1  0  0  0  0
  6 15  1  0  0  0  0
  6 16  1  0  0  0  0
  7  8  2  0  0  0  0
  7 17  1  0  0  0  0
  8 18  1  0  0  0  0
  9 12  1  0  0  0  0
  9 19  1  0  0  0  0
 10 13  1  0  0  0  0
 10 20  1  0  0  0  0
 12 13  2  0  0  0  0
 12 21  1  0  0  0  0
 13 22  1  0  0  0  0
 14 24  1  0  0  0  0
 14 25  1  0  0  0  0
 14 26  1  0  0  0  0
M  END
> <PUBCHEM_COMPOUND_CID>
49719474

> <PUBCHEM_COMPOUND_CANONICALIZED>
1

> <PUBCHEM_CACTVS_COMPLEXITY>
217

> <PUBCHEM_CACTVS_HBOND_ACCEPTOR>
1

> <PUBCHEM_CACTVS_HBOND_DONOR>
1

> <PUBCHEM_CACTVS_ROTATABLE_BOND>
2

> <PUBCHEM_CACTVS_SUBSKEYS>
AAADccBzIAAAAAAAAAAAAAAAAAAAAWAAAAAwAAAAAAAAAFgB8AAAHgAQAAAADAjBngQ+wPPMEACoAzV3VACCgCAxAiAI2KC4ZJgIYOLAkbGUIAhgkgDIyAcQgIAOAAAAAAACAAAAAAAAAAQAAAAAAAAAAA==

> <PUBCHEM_IUPAC_OPENEYE_NAME>
2-indol-1-yl-N-methyl-acetamide

> <PUBCHEM_IUPAC_CAS_NAME>
2-(1-indolyl)-N-methylacetamide

> <PUBCHEM_IUPAC_NAME>
2-indol-1-yl-N-methylacetamide

> <PUBCHEM_IUPAC_SYSTEMATIC_NAME>
2-indol-1-yl-N-methyl-ethanamide

> <PUBCHEM_IUPAC_TRADITIONAL_NAME>
2-indol-1-yl-N-methyl-acetamide

> <PUBCHEM_IUPAC_INCHI>
InChI=1S/C11H12N2O/c1-12-11(14)8-13-7-6-9-4-2-3-5-10(9)13/h2-7H,8H2,1H3,(H,12,14)

> <PUBCHEM_IUPAC_INCHIKEY>
ZIEMPQWRHBEBOT-UHFFFAOYSA-N

> <PUBCHEM_XLOGP3>
2.2

> <PUBCHEM_EXACT_MASS>
188.094963

> <PUBCHEM_MOLECULAR_FORMULA>
C11H12N2O

> <PUBCHEM_MOLECULAR_WEIGHT>
188.22578

> <PUBCHEM_OPENEYE_CAN_SMILES>
CNC(=O)CN1C=CC2=CC=CC=C21

> <PUBCHEM_OPENEYE_ISO_SMILES>
CNC(=O)CN1C=CC2=CC=CC=C21

> <PUBCHEM_CACTVS_TPSA>
34

> <PUBCHEM_MONOISOTOPIC_WEIGHT>
188.094963

> <PUBCHEM_TOTAL_CHARGE>
0

> <PUBCHEM_HEAVY_ATOM_COUNT>
14

> <PUBCHEM_ATOM_DEF_STEREO_COUNT>
0

> <PUBCHEM_ATOM_UDEF_STEREO_COUNT>
0

> <PUBCHEM_BOND_DEF_STEREO_COUNT>
0

> <PUBCHEM_BOND_UDEF_STEREO_COUNT>
0

> <PUBCHEM_ISOTOPIC_ATOM_COUNT>
0

> <PUBCHEM_COMPONENT_COUNT>
1

> <PUBCHEM_CACTVS_TAUTO_COUNT>
2

> <PUBCHEM_COORDINATE_TYPE>
1
5
255

> <PUBCHEM_BONDANNOTATIONS>
10  13  8
12  13  8
2  4  8
2  7  8
4  5  8
4  9  8
5  10  8
5  8  8
7  8  8
9  12  8

$$$$
