31056494
  -OEChem-12041211422D

 31 31  0     0  0  0  0  0  0999 V2000
    3.7320   -3.4330    0.0000 Cl  0  0  0  0  0  0  0  0  0  0  0  0
    5.4641    0.5670    0.0000 O   0  0  0  0  0  0  0  0  0  0  0  0
    5.4641    2.5670    0.0000 N   0  3  0  0  0  0  0  0  0  0  0  0
    3.7320    0.5670    0.0000 N   0  0  0  0  0  0  0  0  0  0  0  0
    4.5981    2.0670    0.0000 C   0  0  0  0  0  0  0  0  0  0  0  0
    6.3301    3.0670    0.0000 C   0  0  0  0  0  0  0  0  0  0  0  0
    4.9641    3.4330    0.0000 C   0  0  0  0  0  0  0  0  0  0  0  0
    4.5981    1.0670    0.0000 C   0  0  0  0  0  0  0  0  0  0  0  0
    3.7320   -0.4330    0.0000 C   0  0  0  0  0  0  0  0  0  0  0  0
    2.8660   -0.9330    0.0000 C   0  0  0  0  0  0  0  0  0  0  0  0
    4.5981   -0.9330    0.0000 C   0  0  0  0  0  0  0  0  0  0  0  0
    2.8660   -1.9330    0.0000 C   0  0  0  0  0  0  0  0  0  0  0  0
    2.0000   -0.4330    0.0000 C   0  0  0  0  0  0  0  0  0  0  0  0
    4.5981   -1.9330    0.0000 C   0  0  0  0  0  0  0  0  0  0  0  0
    3.7320   -2.4330    0.0000 C   0  0  0  0  0  0  0  0  0  0  0  0
    5.7741    2.0300    0.0000 H   0  0  0  0  0  0  0  0  0  0  0  0
    4.3860    2.6496    0.0000 H   0  0  0  0  0  0  0  0  0  0  0  0
    3.9875    1.9593    0.0000 H   0  0  0  0  0  0  0  0  0  0  0  0
    6.6401    2.5300    0.0000 H   0  0  0  0  0  0  0  0  0  0  0  0
    6.8671    3.3770    0.0000 H   0  0  0  0  0  0  0  0  0  0  0  0
    6.0201    3.6039    0.0000 H   0  0  0  0  0  0  0  0  0  0  0  0
    5.5010    3.7430    0.0000 H   0  0  0  0  0  0  0  0  0  0  0  0
    4.6541    3.9700    0.0000 H   0  0  0  0  0  0  0  0  0  0  0  0
    4.4272    3.1230    0.0000 H   0  0  0  0  0  0  0  0  0  0  0  0
    3.1951    0.8770    0.0000 H   0  0  0  0  0  0  0  0  0  0  0  0
    5.1350   -0.6230    0.0000 H   0  0  0  0  0  0  0  0  0  0  0  0
    2.3291   -2.2430    0.0000 H   0  0  0  0  0  0  0  0  0  0  0  0
    2.3100    0.1039    0.0000 H   0  0  0  0  0  0  0  0  0  0  0  0
    1.4631   -0.1230    0.0000 H   0  0  0  0  0  0  0  0  0  0  0  0
    1.6900   -0.9699    0.0000 H   0  0  0  0  0  0  0  0  0  0  0  0
    5.1350   -2.2430    0.0000 H   0  0  0  0  0  0  0  0  0  0  0  0
  1 15  1  0  0  0  0
  2  8  2  0  0  0  0
  3  5  1  0  0  0  0
  3  6  1  0  0  0  0
  3  7  1  0  0  0  0
  3 16  1  0  0  0  0
  4  8  1  0  0  0  0
  4  9  1  0  0  0  0
  4 25  1  0  0  0  0
  5  8  1  0  0  0  0
  5 17  1  0  0  0  0
  5 18  1  0  0  0  0
  6 19  1  0  0  0  0
  6 20  1  0  0  0  0
  6 21  1  0  0  0  0
  7 22  1  0  0  0  0
  7 23  1  0  0  0  0
  7 24  1  0  0  0  0
  9 10  2  0  0  0  0
  9 11  1  0  0  0  0
 10 12  1  0  0  0  0
 10 13  1  0  0  0  0
 11 14  2  0  0  0  0
 11 26  1  0  0  0  0
 12 15  2  0  0  0  0
 12 27  1  0  0  0  0
 13 28  1  0  0  0  0
 13 29  1  0  0  0  0
 13 30  1  0  0  0  0
 14 15  1  0  0  0  0
 14 31  1  0  0  0  0
M  CHG  1   3   1
M  END
> <PUBCHEM_COMPOUND_CID>
31056494

> <PUBCHEM_COMPOUND_CANONICALIZED>
1

> <PUBCHEM_CACTVS_COMPLEXITY>
221

> <PUBCHEM_CACTVS_HBOND_ACCEPTOR>
1

> <PUBCHEM_CACTVS_HBOND_DONOR>
2

> <PUBCHEM_CACTVS_ROTATABLE_BOND>
3

> <PUBCHEM_CACTVS_SUBSKEYS>
AAADceBzIAAEAAAAAAAAAAAAAAAAAAAAAAAwAAAAAAAAAAABAAAAHgIQAAAADArBmCQywIPAAACIAiVSUACCAAAhBwAIiICIZogIYCLBk7GUIAhglADIyAcQgAAOAABAIAACAAAAAIBAAAQAAAAAAAAAAA==

> <PUBCHEM_IUPAC_OPENEYE_NAME>
[2-(4-chloro-2-methyl-anilino)-2-oxo-ethyl]-dimethyl-ammonium

> <PUBCHEM_IUPAC_CAS_NAME>
[2-(4-chloro-2-methylanilino)-2-oxoethyl]-dimethylammonium

> <PUBCHEM_IUPAC_NAME>
[2-(4-chloro-2-methylanilino)-2-oxoethyl]-dimethylazanium

> <PUBCHEM_IUPAC_SYSTEMATIC_NAME>
[2-[(4-chloranyl-2-methyl-phenyl)amino]-2-oxidanylidene-ethyl]-dimethyl-azanium

> <PUBCHEM_IUPAC_TRADITIONAL_NAME>
[2-(4-chloro-2-methyl-anilino)-2-keto-ethyl]-dimethyl-ammonium

> <PUBCHEM_IUPAC_INCHI>
InChI=1S/C11H15ClN2O/c1-8-6-9(12)4-5-10(8)13-11(15)7-14(2)3/h4-6H,7H2,1-3H3,(H,13,15)/p+1

> <PUBCHEM_IUPAC_INCHIKEY>
FWNMVEDYSIDTLT-UHFFFAOYSA-O

> <PUBCHEM_XLOGP3>
2

> <PUBCHEM_EXACT_MASS>
227.095116

> <PUBCHEM_MOLECULAR_FORMULA>
C11H16ClN2O+

> <PUBCHEM_MOLECULAR_WEIGHT>
227.71054

> <PUBCHEM_OPENEYE_CAN_SMILES>
CC1=C(C=CC(=C1)Cl)NC(=O)C[NH+](C)C

> <PUBCHEM_OPENEYE_ISO_SMILES>
CC1=C(C=CC(=C1)Cl)NC(=O)C[NH+](C)C

> <PUBCHEM_CACTVS_TPSA>
33.5

> <PUBCHEM_MONOISOTOPIC_WEIGHT>
227.095116

> <PUBCHEM_TOTAL_CHARGE>
1

> <PUBCHEM_HEAVY_ATOM_COUNT>
15

> <PUBCHEM_ATOM_DEF_STEREO_COUNT>
0

> <PUBCHEM_ATOM_UDEF_STEREO_COUNT>
0

> <PUBCHEM_BOND_DEF_STEREO_COUNT>
0

> <PUBCHEM_BOND_UDEF_STEREO_COUNT>
0

> <PUBCHEM_ISOTOPIC_ATOM_COUNT>
0

> <PUBCHEM_COMPONENT_COUNT>
1

> <PUBCHEM_CACTVS_TAUTO_COUNT>
3

> <PUBCHEM_COORDINATE_TYPE>
1
5
255

> <PUBCHEM_BONDANNOTATIONS>
10  12  8
11  14  8
12  15  8
14  15  8
9  10  8
9  11  8

$$$$
31071221
  -OEChem-12041211422D

 36 37  0     0  0  0  0  0  0999 V2000
    5.1350    0.5600    0.0000 S   0  0  0  0  0  0  0  0  0  0  0  0
    3.4030   -2.4400    0.0000 S   0  0  0  0  0  0  0  0  0  0  0  0
    8.5991   -0.4400    0.0000 F   0  0  0  0  0  0  0  0  0  0  0  0
    8.2331    0.9260    0.0000 F   0  0  0  0  0  0  0  0  0  0  0  0
    7.2331   -0.8060    0.0000 F   0  0  0  0  0  0  0  0  0  0  0  0
    6.1350    0.5600    0.0000 O   0  0  0  0  0  0  0  0  0  0  0  0
    4.1350    0.5600    0.0000 O   0  0  0  0  0  0  0  0  0  0  0  0
    6.8671    0.5600    0.0000 O   0  0  0  0  0  0  0  0  0  0  0  0
    3.9030   -3.3060    0.0000 O   0  0  0  0  0  0  0  0  0  0  0  0
    2.9030   -1.5740    0.0000 O   0  0  0  0  0  0  0  0  0  0  0  0
    5.1350    1.5600    0.0000 N   0  0  0  0  0  0  0  0  0  0  0  0
    2.5369   -2.9400    0.0000 N   0  0  0  0  0  0  0  0  0  0  0  0
    5.1350   -0.4400    0.0000 C   0  0  0  0  0  0  0  0  0  0  0  0
    4.2690   -1.9400    0.0000 C   0  0  0  0  0  0  0  0  0  0  0  0
    4.2690   -0.9400    0.0000 C   0  0  0  0  0  0  0  0  0  0  0  0
    6.0010    2.0600    0.0000 C   0  0  0  0  0  0  0  0  0  0  0  0
    6.0010   -0.9400    0.0000 C   0  0  0  0  0  0  0  0  0  0  0  0
    5.1350   -2.4400    0.0000 C   0  0  0  0  0  0  0  0  0  0  0  0
    6.0010   -1.9400    0.0000 C   0  0  0  0  0  0  0  0  0  0  0  0
    6.8671    1.5600    0.0000 C   0  0  0  0  0  0  0  0  0  0  0  0
    6.0010    3.0600    0.0000 C   0  0  0  0  0  0  0  0  0  0  0  0
    7.7331    2.0600    0.0000 C   0  0  0  0  0  0  0  0  0  0  0  0
    6.8671    3.5600    0.0000 C   0  0  0  0  0  0  0  0  0  0  0  0
    7.7331    3.0600    0.0000 C   0  0  0  0  0  0  0  0  0  0  0  0
    7.7331    0.0600    0.0000 C   0  0  0  0  0  0  0  0  0  0  0  0
    3.7320   -0.6300    0.0000 H   0  0  0  0  0  0  0  0  0  0  0  0
    4.5981    1.8700    0.0000 H   0  0  0  0  0  0  0  0  0  0  0  0
    6.5380   -0.6300    0.0000 H   0  0  0  0  0  0  0  0  0  0  0  0
    5.1350   -3.0600    0.0000 H   0  0  0  0  0  0  0  0  0  0  0  0
    6.5380   -2.2500    0.0000 H   0  0  0  0  0  0  0  0  0  0  0  0
    5.4641    3.3700    0.0000 H   0  0  0  0  0  0  0  0  0  0  0  0
    8.2700    1.7500    0.0000 H   0  0  0  0  0  0  0  0  0  0  0  0
    6.8671    4.1800    0.0000 H   0  0  0  0  0  0  0  0  0  0  0  0
    8.2700    3.3700    0.0000 H   0  0  0  0  0  0  0  0  0  0  0  0
    2.5369   -3.5600    0.0000 H   0  0  0  0  0  0  0  0  0  0  0  0
    2.0000   -2.6300    0.0000 H   0  0  0  0  0  0  0  0  0  0  0  0
  1  6  2  0  0  0  0
  1  7  2  0  0  0  0
  1 11  1  0  0  0  0
  1 13  1  0  0  0  0
  2  9  2  0  0  0  0
  2 10  2  0  0  0  0
  2 12  1  0  0  0  0
  2 14  1  0  0  0  0
  3 25  1  0  0  0  0
  4 25  1  0  0  0  0
  5 25  1  0  0  0  0
  8 20  1  0  0  0  0
  8 25  1  0  0  0  0
 11 16  1  0  0  0  0
 11 27  1  0  0  0  0
 12 35  1  0  0  0  0
 12 36  1  0  0  0  0
 13 15  1  0  0  0  0
 13 17  2  0  0  0  0
 14 15  2  0  0  0  0
 14 18  1  0  0  0  0
 15 26  1  0  0  0  0
 16 20  1  0  0  0  0
 16 21  2  0  0  0  0
 17 19  1  0  0  0  0
 17 28  1  0  0  0  0
 18 19  2  0  0  0  0
 18 29  1  0  0  0  0
 19 30  1  0  0  0  0
 20 22  2  0  0  0  0
 21 23  1  0  0  0  0
 21 31  1  0  0  0  0
 22 24  1  0  0  0  0
 22 32  1  0  0  0  0
 23 24  2  0  0  0  0
 23 33  1  0  0  0  0
 24 34  1  0  0  0  0
M  END
> <PUBCHEM_COMPOUND_CID>
31071221

> <PUBCHEM_COMPOUND_CANONICALIZED>
1

> <PUBCHEM_CACTVS_COMPLEXITY>
655

> <PUBCHEM_CACTVS_HBOND_ACCEPTOR>
10

> <PUBCHEM_CACTVS_HBOND_DONOR>
2

> <PUBCHEM_CACTVS_ROTATABLE_BOND>
5

> <PUBCHEM_CACTVS_SUBSKEYS>
AAADccBzOYBgAAAAAAAAAAAAAAAAAAAAAAAwYAAAAAAAAAABQAAAHwQQQAAACAyB0BAwx4BABAKAACRCQHDCCBAgIgAIiBgHbIgOJiKEsZuBMCBk0BEI6AeQQAAAAAAAAEAAEAAAAAAAgAAgAAAAAAAAAA==

> <PUBCHEM_IUPAC_OPENEYE_NAME>
N3-[2-(trifluoromethoxy)phenyl]benzene-1,3-disulfonamide

> <PUBCHEM_IUPAC_CAS_NAME>
N3-[2-(trifluoromethoxy)phenyl]benzene-1,3-disulfonamide

> <PUBCHEM_IUPAC_NAME>
3-N-[2-(trifluoromethoxy)phenyl]benzene-1,3-disulfonamide

> <PUBCHEM_IUPAC_SYSTEMATIC_NAME>
N3-[2-(trifluoromethyloxy)phenyl]benzene-1,3-disulfonamide

> <PUBCHEM_IUPAC_TRADITIONAL_NAME>
N'-[2-(trifluoromethoxy)phenyl]benzene-1,3-disulfonamide

> <PUBCHEM_IUPAC_INCHI>
InChI=1S/C13H11F3N2O5S2/c14-13(15,16)23-12-7-2-1-6-11(12)18-25(21,22)10-5-3-4-9(8-10)24(17,19)20/h1-8,18H,(H2,17,19,20)

> <PUBCHEM_IUPAC_INCHIKEY>
ZFGPYYVCQFANRE-UHFFFAOYSA-N

> <PUBCHEM_XLOGP3>
2

> <PUBCHEM_EXACT_MASS>
396.006148

> <PUBCHEM_MOLECULAR_FORMULA>
C13H11F3N2O5S2

> <PUBCHEM_MOLECULAR_WEIGHT>
396.36205

> <PUBCHEM_OPENEYE_CAN_SMILES>
C1=CC=C(C(=C1)NS(=O)(=O)C2=CC=CC(=C2)S(=O)(=O)N)OC(F)(F)F

> <PUBCHEM_OPENEYE_ISO_SMILES>
C1=CC=C(C(=C1)NS(=O)(=O)C2=CC=CC(=C2)S(=O)(=O)N)OC(F)(F)F

> <PUBCHEM_CACTVS_TPSA>
132

> <PUBCHEM_MONOISOTOPIC_WEIGHT>
396.006148

> <PUBCHEM_TOTAL_CHARGE>
0

> <PUBCHEM_HEAVY_ATOM_COUNT>
25

> <PUBCHEM_ATOM_DEF_STEREO_COUNT>
0

> <PUBCHEM_ATOM_UDEF_STEREO_COUNT>
0

> <PUBCHEM_BOND_DEF_STEREO_COUNT>
0

> <PUBCHEM_BOND_UDEF_STEREO_COUNT>
0

> <PUBCHEM_ISOTOPIC_ATOM_COUNT>
0

> <PUBCHEM_COMPONENT_COUNT>
1

> <PUBCHEM_CACTVS_TAUTO_COUNT>
1

> <PUBCHEM_COORDINATE_TYPE>
1
5
255

> <PUBCHEM_BONDANNOTATIONS>
13  15  8
13  17  8
14  15  8
14  18  8
16  20  8
16  21  8
17  19  8
18  19  8
20  22  8
21  23  8
22  24  8
23  24  8

$$$$
31073647
  -OEChem-12041211422D

 39 40  0     0  0  0  0  0  0999 V2000
    4.5981    0.9330    0.0000 S   0  0  0  0  0  0  0  0  0  0  0  0
    2.8660   -4.0670    0.0000 S   0  0  0  0  0  0  0  0  0  0  0  0
    8.0622    4.9330    0.0000 F   0  0  0  0  0  0  0  0  0  0  0  0
    9.0622    3.9330    0.0000 F   0  0  0  0  0  0  0  0  0  0  0  0
    7.0622    3.9330    0.0000 F   0  0  0  0  0  0  0  0  0  0  0  0
    4.0981    1.7990    0.0000 O   0  0  0  0  0  0  0  0  0  0  0  0
    5.0981    0.0670    0.0000 O   0  0  0  0  0  0  0  0  0  0  0  0
    8.0622    2.9330    0.0000 O   0  0  0  0  0  0  0  0  0  0  0  0
    3.3660   -4.9330    0.0000 O   0  0  0  0  0  0  0  0  0  0  0  0
    2.3660   -3.2010    0.0000 O   0  0  0  0  0  0  0  0  0  0  0  0
    3.7320    0.4330    0.0000 N   0  0  0  0  0  0  0  0  0  0  0  0
    3.7320   -3.5670    0.0000 N   0  0  0  0  0  0  0  0  0  0  0  0
    5.4641    1.4330    0.0000 C   0  0  0  0  0  0  0  0  0  0  0  0
    3.7320   -0.5670    0.0000 C   0  0  0  0  0  0  0  0  0  0  0  0
    3.7320   -2.5670    0.0000 C   0  0  0  0  0  0  0  0  0  0  0  0
    2.8660   -1.0670    0.0000 C   0  0  0  0  0  0  0  0  0  0  0  0
    4.5981   -1.0670    0.0000 C   0  0  0  0  0  0  0  0  0  0  0  0
    2.8660   -2.0670    0.0000 C   0  0  0  0  0  0  0  0  0  0  0  0
    4.5981   -2.0670    0.0000 C   0  0  0  0  0  0  0  0  0  0  0  0
    6.3301    0.9330    0.0000 C   0  0  0  0  0  0  0  0  0  0  0  0
    5.4641    2.4330    0.0000 C   0  0  0  0  0  0  0  0  0  0  0  0
    7.1962    1.4330    0.0000 C   0  0  0  0  0  0  0  0  0  0  0  0
    6.3301    2.9330    0.0000 C   0  0  0  0  0  0  0  0  0  0  0  0
    7.1962    2.4330    0.0000 C   0  0  0  0  0  0  0  0  0  0  0  0
    2.0000   -4.5670    0.0000 C   0  0  0  0  0  0  0  0  0  0  0  0
    8.0622    3.9330    0.0000 C   0  0  0  0  0  0  0  0  0  0  0  0
    3.1951    0.7430    0.0000 H   0  0  0  0  0  0  0  0  0  0  0  0
    2.3291   -0.7570    0.0000 H   0  0  0  0  0  0  0  0  0  0  0  0
    5.1350   -0.7570    0.0000 H   0  0  0  0  0  0  0  0  0  0  0  0
    2.3291   -2.3770    0.0000 H   0  0  0  0  0  0  0  0  0  0  0  0
    5.1350   -2.3770    0.0000 H   0  0  0  0  0  0  0  0  0  0  0  0
    6.3301    0.3130    0.0000 H   0  0  0  0  0  0  0  0  0  0  0  0
    4.9272    2.7430    0.0000 H   0  0  0  0  0  0  0  0  0  0  0  0
    4.2690   -3.8770    0.0000 H   0  0  0  0  0  0  0  0  0  0  0  0
    7.7331    1.1230    0.0000 H   0  0  0  0  0  0  0  0  0  0  0  0
    6.3301    3.5530    0.0000 H   0  0  0  0  0  0  0  0  0  0  0  0
    1.6900   -4.0300    0.0000 H   0  0  0  0  0  0  0  0  0  0  0  0
    1.4631   -4.8770    0.0000 H   0  0  0  0  0  0  0  0  0  0  0  0
    2.3100   -5.1039    0.0000 H   0  0  0  0  0  0  0  0  0  0  0  0
  1  6  2  0  0  0  0
  1  7  2  0  0  0  0
  1 11  1  0  0  0  0
  1 13  1  0  0  0  0
  2  9  2  0  0  0  0
  2 10  2  0  0  0  0
  2 12  1  0  0  0  0
  2 25  1  0  0  0  0
  3 26  1  0  0  0  0
  4 26  1  0  0  0  0
  5 26  1  0  0  0  0
  8 24  1  0  0  0  0
  8 26  1  0  0  0  0
 11 14  1  0  0  0  0
 11 27  1  0  0  0  0
 12 15  1  0  0  0  0
 12 34  1  0  0  0  0
 13 20  2  0  0  0  0
 13 21  1  0  0  0  0
 14 16  2  0  0  0  0
 14 17  1  0  0  0  0
 15 18  2  0  0  0  0
 15 19  1  0  0  0  0
 16 18  1  0  0  0  0
 16 28  1  0  0  0  0
 17 19  2  0  0  0  0
 17 29  1  0  0  0  0
 18 30  1  0  0  0  0
 19 31  1  0  0  0  0
 20 22  1  0  0  0  0
 20 32  1  0  0  0  0
 21 23  2  0  0  0  0
 21 33  1  0  0  0  0
 22 24  2  0  0  0  0
 22 35  1  0  0  0  0
 23 24  1  0  0  0  0
 23 36  1  0  0  0  0
 25 37  1  0  0  0  0
 25 38  1  0  0  0  0
 25 39  1  0  0  0  0
M  END
> <PUBCHEM_COMPOUND_CID>
31073647

> <PUBCHEM_COMPOUND_CANONICALIZED>
1

> <PUBCHEM_CACTVS_COMPLEXITY>
654

> <PUBCHEM_CACTVS_HBOND_ACCEPTOR>
10

> <PUBCHEM_CACTVS_HBOND_DONOR>
2

> <PUBCHEM_CACTVS_ROTATABLE_BOND>
6

> <PUBCHEM_CACTVS_SUBSKEYS>
AAADccBzOYBgAAAAAAAAAAAAAAAAAAAAAAAwYAAAAAAAAAABQAAAHwQQQAAACAyB0BCyx4BABAKAACRCQHDCCBAgIgAIiBgGbIgMJiKEsZuAMCBk0BEI6AeQQAAAAICAAAAAAAABAQAAAAAAAAAAAAAAAA==

> <PUBCHEM_IUPAC_OPENEYE_NAME>
N-[4-(methanesulfonamido)phenyl]-4-(trifluoromethoxy)benzenesulfonamide

> <PUBCHEM_IUPAC_CAS_NAME>
N-[4-(methanesulfonamido)phenyl]-4-(trifluoromethoxy)benzenesulfonamide

> <PUBCHEM_IUPAC_NAME>
N-[4-(methanesulfonamido)phenyl]-4-(trifluoromethoxy)benzenesulfonamide

> <PUBCHEM_IUPAC_SYSTEMATIC_NAME>
N-[4-(methylsulfonylamino)phenyl]-4-(trifluoromethyloxy)benzenesulfonamide

> <PUBCHEM_IUPAC_TRADITIONAL_NAME>
N-[4-(methanesulfonamido)phenyl]-4-(trifluoromethoxy)benzenesulfonamide

> <PUBCHEM_IUPAC_INCHI>
InChI=1S/C14H13F3N2O5S2/c1-25(20,21)18-10-2-4-11(5-3-10)19-26(22,23)13-8-6-12(7-9-13)24-14(15,16)17/h2-9,18-19H,1H3

> <PUBCHEM_IUPAC_INCHIKEY>
TWKLRRFWSBBKLD-UHFFFAOYSA-N

> <PUBCHEM_XLOGP3>
2.4

> <PUBCHEM_EXACT_MASS>
410.021798

> <PUBCHEM_MOLECULAR_FORMULA>
C14H13F3N2O5S2

> <PUBCHEM_MOLECULAR_WEIGHT>
410.38863

> <PUBCHEM_OPENEYE_CAN_SMILES>
CS(=O)(=O)NC1=CC=C(C=C1)NS(=O)(=O)C2=CC=C(C=C2)OC(F)(F)F

> <PUBCHEM_OPENEYE_ISO_SMILES>
CS(=O)(=O)NC1=CC=C(C=C1)NS(=O)(=O)C2=CC=C(C=C2)OC(F)(F)F

> <PUBCHEM_CACTVS_TPSA>
118

> <PUBCHEM_MONOISOTOPIC_WEIGHT>
410.021798

> <PUBCHEM_TOTAL_CHARGE>
0

> <PUBCHEM_HEAVY_ATOM_COUNT>
26

> <PUBCHEM_ATOM_DEF_STEREO_COUNT>
0

> <PUBCHEM_ATOM_UDEF_STEREO_COUNT>
0

> <PUBCHEM_BOND_DEF_STEREO_COUNT>
0

> <PUBCHEM_BOND_UDEF_STEREO_COUNT>
0

> <PUBCHEM_ISOTOPIC_ATOM_COUNT>
0

> <PUBCHEM_COMPONENT_COUNT>
1

> <PUBCHEM_CACTVS_TAUTO_COUNT>
1

> <PUBCHEM_COORDINATE_TYPE>
1
5
255

> <PUBCHEM_BONDANNOTATIONS>
13  20  8
13  21  8
14  16  8
14  17  8
15  18  8
15  19  8
16  18  8
17  19  8
20  22  8
21  23  8
22  24  8
23  24  8

$$$$
