36047440
  -OEChem-11301217462D

 30 31  0     0  0  0  0  0  0999 V2000
    2.0000    0.8030    0.0000 Cl  0  0  0  0  0  0  0  0  0  0  0  0
    2.0000   -1.1970    0.0000 Cl  0  0  0  0  0  0  0  0  0  0  0  0
    5.5443    0.6077    0.0000 N   0  0  0  0  0  0  0  0  0  0  0  0
    5.5443   -1.0018    0.0000 N   0  0  0  0  0  0  0  0  0  0  0  0
    7.1279   -0.1970    0.0000 C   0  0  0  0  0  0  0  0  0  0  0  0
    7.6279   -1.0630    0.0000 C   0  0  0  0  0  0  0  0  0  0  0  0
    7.6279    0.6690    0.0000 C   0  0  0  0  0  0  0  0  0  0  0  0
    6.1279   -0.1970    0.0000 C   0  0  0  0  0  0  0  0  0  0  0  0
    4.5981    0.3030    0.0000 C   0  0  0  0  0  0  0  0  0  0  0  0
    4.5981   -0.6970    0.0000 C   0  0  0  0  0  0  0  0  0  0  0  0
    8.6279    0.6690    0.0000 C   0  0  0  0  0  0  0  0  0  0  0  0
    8.6279   -1.0630    0.0000 C   0  0  0  0  0  0  0  0  0  0  0  0
    3.7320    0.8030    0.0000 C   0  0  0  0  0  0  0  0  0  0  0  0
    3.7320   -1.1970    0.0000 C   0  0  0  0  0  0  0  0  0  0  0  0
    2.8660    0.3030    0.0000 C   0  0  0  0  0  0  0  0  0  0  0  0
    2.8660   -0.6970    0.0000 C   0  0  0  0  0  0  0  0  0  0  0  0
    7.7479   -0.1970    0.0000 H   0  0  0  0  0  0  0  0  0  0  0  0
    7.0453   -1.2751    0.0000 H   0  0  0  0  0  0  0  0  0  0  0  0
    7.7356   -1.6736    0.0000 H   0  0  0  0  0  0  0  0  0  0  0  0
    7.7356    1.2796    0.0000 H   0  0  0  0  0  0  0  0  0  0  0  0
    7.0453    0.8810    0.0000 H   0  0  0  0  0  0  0  0  0  0  0  0
    5.7369    1.1970    0.0000 H   0  0  0  0  0  0  0  0  0  0  0  0
    8.6279   -1.6830    0.0000 H   0  0  0  0  0  0  0  0  0  0  0  0
    9.2479   -1.0630    0.0000 H   0  0  0  0  0  0  0  0  0  0  0  0
    8.6279    0.0490    0.0000 H   0  0  0  0  0  0  0  0  0  0  0  0
    9.2479    0.6690    0.0000 H   0  0  0  0  0  0  0  0  0  0  0  0
    8.6279    1.2890    0.0000 H   0  0  0  0  0  0  0  0  0  0  0  0
    8.6279   -0.4431    0.0000 H   0  0  0  0  0  0  0  0  0  0  0  0
    3.7320    1.4230    0.0000 H   0  0  0  0  0  0  0  0  0  0  0  0
    3.7320   -1.8170    0.0000 H   0  0  0  0  0  0  0  0  0  0  0  0
  1 15  1  0  0  0  0
  2 16  1  0  0  0  0
  3  8  1  0  0  0  0
  3  9  1  0  0  0  0
  3 22  1  0  0  0  0
  4  8  2  0  0  0  0
  4 10  1  0  0  0  0
  5  6  1  0  0  0  0
  5  7  1  0  0  0  0
  5  8  1  0  0  0  0
  5 17  1  0  0  0  0
  6 12  1  0  0  0  0
  6 18  1  0  0  0  0
  6 19  1  0  0  0  0
  7 11  1  0  0  0  0
  7 20  1  0  0  0  0
  7 21  1  0  0  0  0
  9 10  1  0  0  0  0
  9 13  2  0  0  0  0
 10 14  2  0  0  0  0
 11 25  1  0  0  0  0
 11 26  1  0  0  0  0
 11 27  1  0  0  0  0
 12 23  1  0  0  0  0
 12 24  1  0  0  0  0
 12 28  1  0  0  0  0
 13 15  1  0  0  0  0
 13 29  1  0  0  0  0
 14 16  1  0  0  0  0
 14 30  1  0  0  0  0
 15 16  2  0  0  0  0
M  END
> <PUBCHEM_COMPOUND_CID>
36047440

> <PUBCHEM_COMPOUND_CANONICALIZED>
1

> <PUBCHEM_CACTVS_COMPLEXITY>
233

> <PUBCHEM_CACTVS_HBOND_ACCEPTOR>
1

> <PUBCHEM_CACTVS_HBOND_DONOR>
1

> <PUBCHEM_CACTVS_ROTATABLE_BOND>
3

> <PUBCHEM_CACTVS_SUBSKEYS>
AAADccBzAAAGAAAAAAAAAAAAAAAAAWAAAAAwAAAAAAAAAFgB8AAAHAIQAAAADQqBFyAz0LbJkACgASZiZACCgC2hF6ABm2AwdpiIaKLBmpGUIAhokALIyCcQAAAKAABAAAIAACQAAIAABAAASAAAAAAAAA==

> <PUBCHEM_IUPAC_OPENEYE_NAME>
5,6-dichloro-2-(1-ethylpropyl)-1H-benzimidazole

> <PUBCHEM_IUPAC_CAS_NAME>
5,6-dichloro-2-pentan-3-yl-1H-benzimidazole

> <PUBCHEM_IUPAC_NAME>
5,6-dichloro-2-pentan-3-yl-1H-benzimidazole

> <PUBCHEM_IUPAC_SYSTEMATIC_NAME>
5,6-bis(chloranyl)-2-pentan-3-yl-1H-benzimidazole

> <PUBCHEM_IUPAC_TRADITIONAL_NAME>
5,6-dichloro-2-(1-ethylpropyl)-1H-benzimidazole

> <PUBCHEM_IUPAC_INCHI>
InChI=1S/C12H14Cl2N2/c1-3-7(4-2)12-15-10-5-8(13)9(14)6-11(10)16-12/h5-7H,3-4H2,1-2H3,(H,15,16)

> <PUBCHEM_IUPAC_INCHIKEY>
VTYNTMVIMMKYFH-UHFFFAOYSA-N

> <PUBCHEM_XLOGP3>
4.9

> <PUBCHEM_EXACT_MASS>
256.053404

> <PUBCHEM_MOLECULAR_FORMULA>
C12H14Cl2N2

> <PUBCHEM_MOLECULAR_WEIGHT>
257.15896

> <PUBCHEM_OPENEYE_CAN_SMILES>
CCC(CC)C1=NC2=CC(=C(C=C2N1)Cl)Cl

> <PUBCHEM_OPENEYE_ISO_SMILES>
CCC(CC)C1=NC2=CC(=C(C=C2N1)Cl)Cl

> <PUBCHEM_CACTVS_TPSA>
28.7

> <PUBCHEM_MONOISOTOPIC_WEIGHT>
256.053404

> <PUBCHEM_TOTAL_CHARGE>
0

> <PUBCHEM_HEAVY_ATOM_COUNT>
16

> <PUBCHEM_ATOM_DEF_STEREO_COUNT>
0

> <PUBCHEM_ATOM_UDEF_STEREO_COUNT>
0

> <PUBCHEM_BOND_DEF_STEREO_COUNT>
0

> <PUBCHEM_BOND_UDEF_STEREO_COUNT>
0

> <PUBCHEM_ISOTOPIC_ATOM_COUNT>
0

> <PUBCHEM_COMPONENT_COUNT>
1

> <PUBCHEM_CACTVS_TAUTO_COUNT>
2

> <PUBCHEM_COORDINATE_TYPE>
1
5
255

> <PUBCHEM_BONDANNOTATIONS>
10  14  8
13  15  8
14  16  8
15  16  8
3  8  8
3  9  8
4  10  8
4  8  8
9  10  8
9  13  8

$$$$
