27276336
  -OEChem-04041303242D

 31 32  0     0  0  0  0  0  0999 V2000
    4.5981   -1.5173    0.0000 O   0  0  0  0  0  0  0  0  0  0  0  0
    5.4641   -0.0173    0.0000 N   0  0  0  0  0  0  0  0  0  0  0  0
    3.7320   -0.0173    0.0000 N   0  0  0  0  0  0  0  0  0  0  0  0
    5.4641    0.9827    0.0000 C   0  0  0  0  0  0  0  0  0  0  0  0
    6.3301    1.4827    0.0000 C   0  0  0  0  0  0  0  0  0  0  0  0
    6.3301   -0.5173    0.0000 C   0  0  0  0  0  0  0  0  0  0  0  0
    7.1962    0.9827    0.0000 C   0  0  0  0  0  0  0  0  0  0  0  0
    7.1962   -0.0173    0.0000 C   0  0  0  0  0  0  0  0  0  0  0  0
    8.0901    1.5173    0.0000 C   0  0  0  0  0  0  0  0  0  0  0  0
    4.5981   -0.5173    0.0000 C   0  0  0  0  0  0  0  0  0  0  0  0
    8.0901   -0.5520    0.0000 C   0  0  0  0  0  0  0  0  0  0  0  0
    8.9962    1.0035    0.0000 C   0  0  0  0  0  0  0  0  0  0  0  0
    8.9962   -0.0381    0.0000 C   0  0  0  0  0  0  0  0  0  0  0  0
    2.8660   -0.5173    0.0000 C   0  0  0  0  0  0  0  0  0  0  0  0
    2.0000   -0.0173    0.0000 C   0  0  0  0  0  0  0  0  0  0  0  0
    5.2520    1.5653    0.0000 H   0  0  0  0  0  0  0  0  0  0  0  0
    4.8535    0.8750    0.0000 H   0  0  0  0  0  0  0  0  0  0  0  0
    6.7287    1.9576    0.0000 H   0  0  0  0  0  0  0  0  0  0  0  0
    5.9316    1.9576    0.0000 H   0  0  0  0  0  0  0  0  0  0  0  0
    5.9316   -0.9923    0.0000 H   0  0  0  0  0  0  0  0  0  0  0  0
    6.7287   -0.9923    0.0000 H   0  0  0  0  0  0  0  0  0  0  0  0
    8.0829    2.1373    0.0000 H   0  0  0  0  0  0  0  0  0  0  0  0
    8.0829   -1.1720    0.0000 H   0  0  0  0  0  0  0  0  0  0  0  0
    9.5319    1.3156    0.0000 H   0  0  0  0  0  0  0  0  0  0  0  0
    9.5319   -0.3502    0.0000 H   0  0  0  0  0  0  0  0  0  0  0  0
    3.7320    0.6027    0.0000 H   0  0  0  0  0  0  0  0  0  0  0  0
    2.4675   -0.9923    0.0000 H   0  0  0  0  0  0  0  0  0  0  0  0
    3.2646   -0.9923    0.0000 H   0  0  0  0  0  0  0  0  0  0  0  0
    2.3100    0.5196    0.0000 H   0  0  0  0  0  0  0  0  0  0  0  0
    1.4631    0.2927    0.0000 H   0  0  0  0  0  0  0  0  0  0  0  0
    1.6900   -0.5543    0.0000 H   0  0  0  0  0  0  0  0  0  0  0  0
  1 10  2  0  0  0  0
  2  4  1  0  0  0  0
  2  6  1  0  0  0  0
  2 10  1  0  0  0  0
  3 10  1  0  0  0  0
  3 14  1  0  0  0  0
  3 26  1  0  0  0  0
  4  5  1  0  0  0  0
  4 16  1  0  0  0  0
  4 17  1  0  0  0  0
  5  7  1  0  0  0  0
  5 18  1  0  0  0  0
  5 19  1  0  0  0  0
  6  8  1  0  0  0  0
  6 20  1  0  0  0  0
  6 21  1  0  0  0  0
  7  8  1  0  0  0  0
  7  9  2  0  0  0  0
  8 11  2  0  0  0  0
  9 12  1  0  0  0  0
  9 22  1  0  0  0  0
 11 13  1  0  0  0  0
 11 23  1  0  0  0  0
 12 13  2  0  0  0  0
 12 24  1  0  0  0  0
 13 25  1  0  0  0  0
 14 15  1  0  0  0  0
 14 27  1  0  0  0  0
 14 28  1  0  0  0  0
 15 29  1  0  0  0  0
 15 30  1  0  0  0  0
 15 31  1  0  0  0  0
M  END
> <PUBCHEM_COMPOUND_CID>
27276336

> <PUBCHEM_COMPOUND_CANONICALIZED>
1

> <PUBCHEM_CACTVS_COMPLEXITY>
230

> <PUBCHEM_CACTVS_HBOND_ACCEPTOR>
1

> <PUBCHEM_CACTVS_HBOND_DONOR>
1

> <PUBCHEM_CACTVS_ROTATABLE_BOND>
1

> <PUBCHEM_CACTVS_SUBSKEYS>
AAADceBzIAAAAAAAAAAAAAAAAAAAAAAAAAA8QAAAAAAAAACxAAAAHgAQAAAADADBGAQzAIPAAACIAiBCEACCAAAgAAAIiIAIBIiIICKAkRGEIAholgKIiAcQgIAOgAAAAAAQAAAAAAAAACAAAAAAAAAAAA==

> <PUBCHEM_IUPAC_OPENEYE_NAME>
N-ethyl-3,4-dihydro-1H-isoquinoline-2-carboxamide

> <PUBCHEM_IUPAC_CAS_NAME>
N-ethyl-3,4-dihydro-1H-isoquinoline-2-carboxamide

> <PUBCHEM_IUPAC_NAME>
N-ethyl-3,4-dihydro-1H-isoquinoline-2-carboxamide

> <PUBCHEM_IUPAC_SYSTEMATIC_NAME>
N-ethyl-3,4-dihydro-1H-isoquinoline-2-carboxamide

> <PUBCHEM_IUPAC_TRADITIONAL_NAME>
N-ethyl-3,4-dihydro-1H-isoquinoline-2-carboxamide

> <PUBCHEM_IUPAC_INCHI>
InChI=1S/C12H16N2O/c1-2-13-12(15)14-8-7-10-5-3-4-6-11(10)9-14/h3-6H,2,7-9H2,1H3,(H,13,15)

> <PUBCHEM_IUPAC_INCHIKEY>
AWZNTVDWXYUVRE-UHFFFAOYSA-N

> <PUBCHEM_XLOGP3>
1.4

> <PUBCHEM_EXACT_MASS>
204.126263

> <PUBCHEM_MOLECULAR_FORMULA>
C12H16N2O

> <PUBCHEM_MOLECULAR_WEIGHT>
204.26824

> <PUBCHEM_OPENEYE_CAN_SMILES>
CCNC(=O)N1CCC2=CC=CC=C2C1

> <PUBCHEM_OPENEYE_ISO_SMILES>
CCNC(=O)N1CCC2=CC=CC=C2C1

> <PUBCHEM_CACTVS_TPSA>
32.3

> <PUBCHEM_MONOISOTOPIC_WEIGHT>
204.126263

> <PUBCHEM_TOTAL_CHARGE>
0

> <PUBCHEM_HEAVY_ATOM_COUNT>
15

> <PUBCHEM_ATOM_DEF_STEREO_COUNT>
0

> <PUBCHEM_ATOM_UDEF_STEREO_COUNT>
0

> <PUBCHEM_BOND_DEF_STEREO_COUNT>
0

> <PUBCHEM_BOND_UDEF_STEREO_COUNT>
0

> <PUBCHEM_ISOTOPIC_ATOM_COUNT>
0

> <PUBCHEM_COMPONENT_COUNT>
1

> <PUBCHEM_CACTVS_TAUTO_COUNT>
2

> <PUBCHEM_COORDINATE_TYPE>
1
5
255

> <PUBCHEM_BONDANNOTATIONS>
11  13  8
12  13  8
7  8  8
7  9  8
8  11  8
9  12  8

$$$$
27276355
  -OEChem-04041303242D

 34 35  0     0  0  0  0  0  0999 V2000
    7.1962    0.0000    0.0000 O   0  0  0  0  0  0  0  0  0  0  0  0
    5.4641    0.0000    0.0000 N   0  0  0  0  0  0  0  0  0  0  0  0
    6.3301    1.5000    0.0000 N   0  0  0  0  0  0  0  0  0  0  0  0
    4.5981   -1.5000    0.0000 C   0  0  0  0  0  0  0  0  0  0  0  0
    5.4641   -1.0000    0.0000 C   0  0  0  0  0  0  0  0  0  0  0  0
    3.7320   -1.0000    0.0000 C   0  0  0  0  0  0  0  0  0  0  0  0
    4.5981   -2.5000    0.0000 C   0  0  0  0  0  0  0  0  0  0  0  0
    6.3301   -1.5000    0.0000 C   0  0  0  0  0  0  0  0  0  0  0  0
    3.7320    0.0000    0.0000 C   0  0  0  0  0  0  0  0  0  0  0  0
    2.8660   -1.5000    0.0000 C   0  0  0  0  0  0  0  0  0  0  0  0
    5.4641   -3.0000    0.0000 C   0  0  0  0  0  0  0  0  0  0  0  0
    6.3301   -2.5000    0.0000 C   0  0  0  0  0  0  0  0  0  0  0  0
    6.3301    0.5000    0.0000 C   0  0  0  0  0  0  0  0  0  0  0  0
    2.8660    0.5000    0.0000 C   0  0  0  0  0  0  0  0  0  0  0  0
    2.0000   -1.0000    0.0000 C   0  0  0  0  0  0  0  0  0  0  0  0
    7.1962    2.0000    0.0000 C   0  0  0  0  0  0  0  0  0  0  0  0
    2.0000    0.0000    0.0000 C   0  0  0  0  0  0  0  0  0  0  0  0
    7.1962    3.0000    0.0000 C   0  0  0  0  0  0  0  0  0  0  0  0
    4.0611   -2.8100    0.0000 H   0  0  0  0  0  0  0  0  0  0  0  0
    6.8671   -1.1900    0.0000 H   0  0  0  0  0  0  0  0  0  0  0  0
    4.9272    0.3100    0.0000 H   0  0  0  0  0  0  0  0  0  0  0  0
    4.2690    0.3100    0.0000 H   0  0  0  0  0  0  0  0  0  0  0  0
    2.8660   -2.1200    0.0000 H   0  0  0  0  0  0  0  0  0  0  0  0
    5.4641   -3.6200    0.0000 H   0  0  0  0  0  0  0  0  0  0  0  0
    6.8671   -2.8100    0.0000 H   0  0  0  0  0  0  0  0  0  0  0  0
    7.4082    1.4174    0.0000 H   0  0  0  0  0  0  0  0  0  0  0  0
    7.8067    2.1077    0.0000 H   0  0  0  0  0  0  0  0  0  0  0  0
    2.8660    1.1200    0.0000 H   0  0  0  0  0  0  0  0  0  0  0  0
    1.4631   -1.3100    0.0000 H   0  0  0  0  0  0  0  0  0  0  0  0
    5.7932    1.8100    0.0000 H   0  0  0  0  0  0  0  0  0  0  0  0
    1.4631    0.3100    0.0000 H   0  0  0  0  0  0  0  0  0  0  0  0
    7.8162    3.0000    0.0000 H   0  0  0  0  0  0  0  0  0  0  0  0
    7.1962    3.6200    0.0000 H   0  0  0  0  0  0  0  0  0  0  0  0
    6.5762    3.0000    0.0000 H   0  0  0  0  0  0  0  0  0  0  0  0
  1 13  2  0  0  0  0
  2  5  1  0  0  0  0
  2 13  1  0  0  0  0
  2 21  1  0  0  0  0
  3 13  1  0  0  0  0
  3 16  1  0  0  0  0
  3 30  1  0  0  0  0
  4  5  1  0  0  0  0
  4  6  1  0  0  0  0
  4  7  2  0  0  0  0
  5  8  2  0  0  0  0
  6  9  2  0  0  0  0
  6 10  1  0  0  0  0
  7 11  1  0  0  0  0
  7 19  1  0  0  0  0
  8 12  1  0  0  0  0
  8 20  1  0  0  0  0
  9 14  1  0  0  0  0
  9 22  1  0  0  0  0
 10 15  2  0  0  0  0
 10 23  1  0  0  0  0
 11 12  2  0  0  0  0
 11 24  1  0  0  0  0
 12 25  1  0  0  0  0
 14 17  2  0  0  0  0
 14 28  1  0  0  0  0
 15 17  1  0  0  0  0
 15 29  1  0  0  0  0
 16 18  1  0  0  0  0
 16 26  1  0  0  0  0
 16 27  1  0  0  0  0
 17 31  1  0  0  0  0
 18 32  1  0  0  0  0
 18 33  1  0  0  0  0
 18 34  1  0  0  0  0
M  END
> <PUBCHEM_COMPOUND_CID>
27276355

> <PUBCHEM_COMPOUND_CANONICALIZED>
1

> <PUBCHEM_CACTVS_COMPLEXITY>
261

> <PUBCHEM_CACTVS_HBOND_ACCEPTOR>
1

> <PUBCHEM_CACTVS_HBOND_DONOR>
2

> <PUBCHEM_CACTVS_ROTATABLE_BOND>
3

> <PUBCHEM_CACTVS_SUBSKEYS>
AAADceBzIAAAAAAAAAAAAAAAAAAAAAAAAAAwYAAAAAAAAAABQAAAHgAQAAAADAjBGAQzwILAAACIAiRCUACCAAAhAgAIiIAIZIiIICLAkZGEIAholgJIyCcQgMAOgAAAAAACAAAAAAAAAAQAAAAAAAAAAA==

> <PUBCHEM_IUPAC_OPENEYE_NAME>
1-ethyl-3-(2-phenylphenyl)urea

> <PUBCHEM_IUPAC_CAS_NAME>
1-ethyl-3-(2-phenylphenyl)urea

> <PUBCHEM_IUPAC_NAME>
1-ethyl-3-(2-phenylphenyl)urea

> <PUBCHEM_IUPAC_SYSTEMATIC_NAME>
1-ethyl-3-(2-phenylphenyl)urea

> <PUBCHEM_IUPAC_TRADITIONAL_NAME>
1-ethyl-3-(2-phenylphenyl)urea

> <PUBCHEM_IUPAC_INCHI>
InChI=1S/C15H16N2O/c1-2-16-15(18)17-14-11-7-6-10-13(14)12-8-4-3-5-9-12/h3-11H,2H2,1H3,(H2,16,17,18)

> <PUBCHEM_IUPAC_INCHIKEY>
PZNZALHKMASSAY-UHFFFAOYSA-N

> <PUBCHEM_XLOGP3>
2.2

> <PUBCHEM_EXACT_MASS>
240.126263

> <PUBCHEM_MOLECULAR_FORMULA>
C15H16N2O

> <PUBCHEM_MOLECULAR_WEIGHT>
240.30034

> <PUBCHEM_OPENEYE_CAN_SMILES>
CCNC(=O)NC1=CC=CC=C1C2=CC=CC=C2

> <PUBCHEM_OPENEYE_ISO_SMILES>
CCNC(=O)NC1=CC=CC=C1C2=CC=CC=C2

> <PUBCHEM_CACTVS_TPSA>
41.1

> <PUBCHEM_MONOISOTOPIC_WEIGHT>
240.126263

> <PUBCHEM_TOTAL_CHARGE>
0

> <PUBCHEM_HEAVY_ATOM_COUNT>
18

> <PUBCHEM_ATOM_DEF_STEREO_COUNT>
0

> <PUBCHEM_ATOM_UDEF_STEREO_COUNT>
0

> <PUBCHEM_BOND_DEF_STEREO_COUNT>
0

> <PUBCHEM_BOND_UDEF_STEREO_COUNT>
0

> <PUBCHEM_ISOTOPIC_ATOM_COUNT>
0

> <PUBCHEM_COMPONENT_COUNT>
1

> <PUBCHEM_CACTVS_TAUTO_COUNT>
3

> <PUBCHEM_COORDINATE_TYPE>
1
5
255

> <PUBCHEM_BONDANNOTATIONS>
10  15  8
11  12  8
14  17  8
15  17  8
4  5  8
4  7  8
5  8  8
6  10  8
6  9  8
7  11  8
8  12  8
9  14  8

$$$$
27276612
  -OEChem-04041303242D

 42 42  0     0  0  0  0  0  0999 V2000
    8.0622    2.0000    0.0000 O   0  0  0  0  0  0  0  0  0  0  0  0
    4.5981    3.0000    0.0000 O   0  0  0  0  0  0  0  0  0  0  0  0
    7.1962    0.5000    0.0000 O   0  0  0  0  0  0  0  0  0  0  0  0
    3.7320    1.5000    0.0000 O   0  0  0  0  0  0  0  0  0  0  0  0
    2.0000   -1.5000    0.0000 O   0  5  0  0  0  0  0  0  0  0  0  0
    2.8660    0.0000    0.0000 O   0  0  0  0  0  0  0  0  0  0  0  0
    5.4641   -4.5000    0.0000 O   0  5  0  0  0  0  0  0  0  0  0  0
    3.7320   -4.5000    0.0000 O   0  0  0  0  0  0  0  0  0  0  0  0
    4.5981    0.0000    0.0000 N   0  0  0  0  0  0  0  0  0  0  0  0
    5.4641    0.5000    0.0000 N   0  0  0  0  0  0  0  0  0  0  0  0
    2.8660   -1.0000    0.0000 N   0  3  0  0  0  0  0  0  0  0  0  0
    4.5981   -4.0000    0.0000 N   0  3  0  0  0  0  0  0  0  0  0  0
    4.5981   -1.0000    0.0000 C   0  0  0  0  0  0  0  0  0  0  0  0
    3.7320   -1.5000    0.0000 C   0  0  0  0  0  0  0  0  0  0  0  0
    6.3301    2.0000    0.0000 C   0  0  0  0  0  0  0  0  0  0  0  0
    5.4641    1.5000    0.0000 C   0  0  0  0  0  0  0  0  0  0  0  0
    5.4641   -1.5000    0.0000 C   0  0  0  0  0  0  0  0  0  0  0  0
    3.7320   -2.5000    0.0000 C   0  0  0  0  0  0  0  0  0  0  0  0
    4.5981   -3.0000    0.0000 C   0  0  0  0  0  0  0  0  0  0  0  0
    5.4641   -2.5000    0.0000 C   0  0  0  0  0  0  0  0  0  0  0  0
    7.1962    1.5000    0.0000 C   0  0  0  0  0  0  0  0  0  0  0  0
    4.5981    2.0000    0.0000 C   0  0  0  0  0  0  0  0  0  0  0  0
    8.9282    1.5000    0.0000 C   0  0  0  0  0  0  0  0  0  0  0  0
    3.7320    3.5000    0.0000 C   0  0  0  0  0  0  0  0  0  0  0  0
    9.7942    2.0000    0.0000 C   0  0  0  0  0  0  0  0  0  0  0  0
    3.7320    4.5000    0.0000 C   0  0  0  0  0  0  0  0  0  0  0  0
    6.7287    2.4750    0.0000 H   0  0  0  0  0  0  0  0  0  0  0  0
    5.9316    2.4750    0.0000 H   0  0  0  0  0  0  0  0  0  0  0  0
    6.0010   -1.1900    0.0000 H   0  0  0  0  0  0  0  0  0  0  0  0
    3.1951   -2.8100    0.0000 H   0  0  0  0  0  0  0  0  0  0  0  0
    4.0611    0.3100    0.0000 H   0  0  0  0  0  0  0  0  0  0  0  0
    6.0010   -2.8100    0.0000 H   0  0  0  0  0  0  0  0  0  0  0  0
    8.5297    1.0250    0.0000 H   0  0  0  0  0  0  0  0  0  0  0  0
    9.3267    1.0250    0.0000 H   0  0  0  0  0  0  0  0  0  0  0  0
    3.1215    3.6077    0.0000 H   0  0  0  0  0  0  0  0  0  0  0  0
    3.5200    2.9174    0.0000 H   0  0  0  0  0  0  0  0  0  0  0  0
   10.1042    1.4631    0.0000 H   0  0  0  0  0  0  0  0  0  0  0  0
   10.3312    2.3100    0.0000 H   0  0  0  0  0  0  0  0  0  0  0  0
    9.4842    2.5369    0.0000 H   0  0  0  0  0  0  0  0  0  0  0  0
    4.3520    4.5000    0.0000 H   0  0  0  0  0  0  0  0  0  0  0  0
    3.7320    5.1200    0.0000 H   0  0  0  0  0  0  0  0  0  0  0  0
    3.1120    4.5000    0.0000 H   0  0  0  0  0  0  0  0  0  0  0  0
  1 21  1  0  0  0  0
  1 23  1  0  0  0  0
  2 22  1  0  0  0  0
  2 24  1  0  0  0  0
  3 21  2  0  0  0  0
  4 22  2  0  0  0  0
  5 11  1  0  0  0  0
  6 11  2  0  0  0  0
  7 12  1  0  0  0  0
  8 12  2  0  0  0  0
  9 10  1  0  0  0  0
  9 13  1  0  0  0  0
  9 31  1  0  0  0  0
 10 16  2  0  0  0  0
 11 14  1  0  0  0  0
 12 19  1  0  0  0  0
 13 14  2  0  0  0  0
 13 17  1  0  0  0  0
 14 18  1  0  0  0  0
 15 16  1  0  0  0  0
 15 21  1  0  0  0  0
 15 27  1  0  0  0  0
 15 28  1  0  0  0  0
 16 22  1  0  0  0  0
 17 20  2  0  0  0  0
 17 29  1  0  0  0  0
 18 19  2  0  0  0  0
 18 30  1  0  0  0  0
 19 20  1  0  0  0  0
 20 32  1  0  0  0  0
 23 25  1  0  0  0  0
 23 33  1  0  0  0  0
 23 34  1  0  0  0  0
 24 26  1  0  0  0  0
 24 35  1  0  0  0  0
 24 36  1  0  0  0  0
 25 37  1  0  0  0  0
 25 38  1  0  0  0  0
 25 39  1  0  0  0  0
 26 40  1  0  0  0  0
 26 41  1  0  0  0  0
 26 42  1  0  0  0  0
M  CHG  4   5  -1   7  -1  11   1  12   1
M  END
> <PUBCHEM_COMPOUND_CID>
27276612

> <PUBCHEM_COMPOUND_CANONICALIZED>
1

> <PUBCHEM_CACTVS_COMPLEXITY>
568

> <PUBCHEM_CACTVS_HBOND_ACCEPTOR>
10

> <PUBCHEM_CACTVS_HBOND_DONOR>
1

> <PUBCHEM_CACTVS_ROTATABLE_BOND>
9

> <PUBCHEM_CACTVS_SUBSKEYS>
AAADceBzvAAAAAAAAAAAAAAAAAAAAAAAAAAwAAAAAAAAAAABAAAAHgAcAAAACAihkAIyyIByRACpASTySwSSBAAgAgA4iAEwdIoIYDKA0dGCIABkmIAIyAdTAAAAAACAAAQAACAAAQAACAAAQAAAAAAAAA==

> <PUBCHEM_IUPAC_OPENEYE_NAME>
diethyl (2Z)-2-[(2,4-dinitrophenyl)hydrazono]butanedioate

> <PUBCHEM_IUPAC_CAS_NAME>
(2Z)-2-[(2,4-dinitrophenyl)hydrazinylidene]butanedioic acid diethyl ester

> <PUBCHEM_IUPAC_NAME>
diethyl (2Z)-2-[(2,4-dinitrophenyl)hydrazinylidene]butanedioate

> <PUBCHEM_IUPAC_SYSTEMATIC_NAME>
diethyl (2Z)-2-[(2,4-dinitrophenyl)hydrazinylidene]butanedioate

> <PUBCHEM_IUPAC_TRADITIONAL_NAME>
(2Z)-2-[(2,4-dinitrophenyl)hydrazono]succinic acid diethyl ester

> <PUBCHEM_IUPAC_INCHI>
InChI=1S/C14H16N4O8/c1-3-25-13(19)8-11(14(20)26-4-2)16-15-10-6-5-9(17(21)22)7-12(10)18(23)24/h5-7,15H,3-4,8H2,1-2H3/b16-11-

> <PUBCHEM_IUPAC_INCHIKEY>
JULJHHPMHVGLLS-WJDWOHSUSA-N

> <PUBCHEM_XLOGP3>
4.4

> <PUBCHEM_EXACT_MASS>
368.096813

> <PUBCHEM_MOLECULAR_FORMULA>
C14H16N4O8

> <PUBCHEM_MOLECULAR_WEIGHT>
368.29884

> <PUBCHEM_OPENEYE_CAN_SMILES>
CCOC(=O)CC(=NNC1=C(C=C(C=C1)[N+](=O)[O-])[N+](=O)[O-])C(=O)OCC

> <PUBCHEM_OPENEYE_ISO_SMILES>
CCOC(=O)C/C(=N/NC1=C(C=C(C=C1)[N+](=O)[O-])[N+](=O)[O-])/C(=O)OCC

> <PUBCHEM_CACTVS_TPSA>
169

> <PUBCHEM_MONOISOTOPIC_WEIGHT>
368.096813

> <PUBCHEM_TOTAL_CHARGE>
0

> <PUBCHEM_HEAVY_ATOM_COUNT>
26

> <PUBCHEM_ATOM_DEF_STEREO_COUNT>
0

> <PUBCHEM_ATOM_UDEF_STEREO_COUNT>
0

> <PUBCHEM_BOND_DEF_STEREO_COUNT>
1

> <PUBCHEM_BOND_UDEF_STEREO_COUNT>
0

> <PUBCHEM_ISOTOPIC_ATOM_COUNT>
0

> <PUBCHEM_COMPONENT_COUNT>
1

> <PUBCHEM_CACTVS_TAUTO_COUNT>
3

> <PUBCHEM_COORDINATE_TYPE>
1
5
255

> <PUBCHEM_BONDANNOTATIONS>
13  14  8
13  17  8
14  18  8
17  20  8
18  19  8
19  20  8

$$$$
27281654
  -OEChem-04041303242D

 21 21  0     0  0  0  0  0  0999 V2000
    2.0402   -2.0352    0.0000 Br  0  0  0  0  0  0  0  0  0  0  0  0
    2.8090    0.4964    0.0000 N   0  3  0  0  0  0  0  0  0  0  0  0
    3.6180    1.0842    0.0000 C   0  0  0  0  0  0  0  0  0  0  0  0
    2.0000    1.0842    0.0000 C   0  0  0  0  0  0  0  0  0  0  0  0
    3.3090    2.0352    0.0000 C   0  0  0  0  0  0  0  0  0  0  0  0
    2.3090    2.0352    0.0000 C   0  0  0  0  0  0  0  0  0  0  0  0
    2.2212   -0.3126    0.0000 C   0  0  0  0  0  0  0  0  0  0  0  0
    2.6280   -1.2262    0.0000 C   0  0  0  0  0  0  0  0  0  0  0  0
    3.1734   -0.0052    0.0000 H   0  0  0  0  0  0  0  0  0  0  0  0
    1.4336    1.3363    0.0000 H   0  0  0  0  0  0  0  0  0  0  0  0
    1.6900    0.5472    0.0000 H   0  0  0  0  0  0  0  0  0  0  0  0
    3.9280    0.5472    0.0000 H   0  0  0  0  0  0  0  0  0  0  0  0
    4.1844    1.3363    0.0000 H   0  0  0  0  0  0  0  0  0  0  0  0
    3.9155    2.1641    0.0000 H   0  0  0  0  0  0  0  0  0  0  0  0
    3.2442    2.6518    0.0000 H   0  0  0  0  0  0  0  0  0  0  0  0
    2.3738    2.6518    0.0000 H   0  0  0  0  0  0  0  0  0  0  0  0
    1.7026    2.1641    0.0000 H   0  0  0  0  0  0  0  0  0  0  0  0
    1.7905    0.1333    0.0000 H   0  0  0  0  0  0  0  0  0  0  0  0
    1.7072   -0.6593    0.0000 H   0  0  0  0  0  0  0  0  0  0  0  0
    3.0587   -1.6722    0.0000 H   0  0  0  0  0  0  0  0  0  0  0  0
    3.1420   -0.8795    0.0000 H   0  0  0  0  0  0  0  0  0  0  0  0
  1  8  1  0  0  0  0
  2  3  1  0  0  0  0
  2  4  1  0  0  0  0
  2  7  1  0  0  0  0
  2  9  1  0  0  0  0
  3  5  1  0  0  0  0
  3 12  1  0  0  0  0
  3 13  1  0  0  0  0
  4  6  1  0  0  0  0
  4 10  1  0  0  0  0
  4 11  1  0  0  0  0
  5  6  1  0  0  0  0
  5 14  1  0  0  0  0
  5 15  1  0  0  0  0
  6 16  1  0  0  0  0
  6 17  1  0  0  0  0
  7  8  1  0  0  0  0
  7 18  1  0  0  0  0
  7 19  1  0  0  0  0
  8 20  1  0  0  0  0
  8 21  1  0  0  0  0
M  CHG  1   2   1
M  END
> <PUBCHEM_COMPOUND_CID>
27281654

> <PUBCHEM_COMPOUND_CANONICALIZED>
1

> <PUBCHEM_CACTVS_COMPLEXITY>
59.5

> <PUBCHEM_CACTVS_HBOND_ACCEPTOR>
0

> <PUBCHEM_CACTVS_HBOND_DONOR>
1

> <PUBCHEM_CACTVS_ROTATABLE_BOND>
2

> <PUBCHEM_CACTVS_SUBSKEYS>
AAADccBiAAAAEAAAAAAAAAAAAAAAAWAAAAAAAAAAAAAAAAAAAAAAHABQAAABSADBAAQAAAPAAAAAAAAAAAAAAAAAAAAAAIAIAAAAAAAAgAAEAAAAEACAAAAAAAAAAAAAAAAAAAAAAAAAAAAAAAAAAAAAAA==

> <PUBCHEM_IUPAC_OPENEYE_NAME>
1-(2-bromoethyl)pyrrolidin-1-ium

> <PUBCHEM_IUPAC_CAS_NAME>
1-(2-bromoethyl)pyrrolidin-1-ium

> <PUBCHEM_IUPAC_NAME>
1-(2-bromoethyl)pyrrolidin-1-ium

> <PUBCHEM_IUPAC_SYSTEMATIC_NAME>
1-(2-bromoethyl)pyrrolidin-1-ium

> <PUBCHEM_IUPAC_TRADITIONAL_NAME>
1-(2-bromoethyl)pyrrolidin-1-ium

> <PUBCHEM_IUPAC_INCHI>
InChI=1S/C6H12BrN/c7-3-6-8-4-1-2-5-8/h1-6H2/p+1

> <PUBCHEM_IUPAC_INCHIKEY>
SAVGSSSLZPLNLG-UHFFFAOYSA-O

> <PUBCHEM_XLOGP3>
1.8

> <PUBCHEM_EXACT_MASS>
178.023137

> <PUBCHEM_MOLECULAR_FORMULA>
C6H13BrN+

> <PUBCHEM_MOLECULAR_WEIGHT>
179.07812

> <PUBCHEM_OPENEYE_CAN_SMILES>
C1CC[NH+](C1)CCBr

> <PUBCHEM_OPENEYE_ISO_SMILES>
C1CC[NH+](C1)CCBr

> <PUBCHEM_CACTVS_TPSA>
4.4

> <PUBCHEM_MONOISOTOPIC_WEIGHT>
178.023137

> <PUBCHEM_TOTAL_CHARGE>
1

> <PUBCHEM_HEAVY_ATOM_COUNT>
8

> <PUBCHEM_ATOM_DEF_STEREO_COUNT>
0

> <PUBCHEM_ATOM_UDEF_STEREO_COUNT>
0

> <PUBCHEM_BOND_DEF_STEREO_COUNT>
0

> <PUBCHEM_BOND_UDEF_STEREO_COUNT>
0

> <PUBCHEM_ISOTOPIC_ATOM_COUNT>
0

> <PUBCHEM_COMPONENT_COUNT>
1

> <PUBCHEM_CACTVS_TAUTO_COUNT>
1

> <PUBCHEM_COORDINATE_TYPE>
1
5
255

$$$$
27282030
  -OEChem-04041303242D

 32 34  0     0  0  0  0  0  0999 V2000
    2.6200   -1.4286    0.0000 N   0  3  0  0  0  0  0  0  0  0  0  0
    7.8964    1.3762    0.0000 N   0  0  0  0  0  0  0  0  0  0  0  0
    4.3520   -0.4286    0.0000 C   0  0  0  0  0  0  0  0  0  0  0  0
    4.3520   -1.4286    0.0000 C   0  0  0  0  0  0  0  0  0  0  0  0
    3.4860    0.0714    0.0000 C   0  0  0  0  0  0  0  0  0  0  0  0
    3.4860   -1.9286    0.0000 C   0  0  0  0  0  0  0  0  0  0  0  0
    2.6200   -0.4286    0.0000 C   0  0  0  0  0  0  0  0  0  0  0  0
    5.2181    0.0714    0.0000 C   0  0  0  0  0  0  0  0  0  0  0  0
    6.0841   -0.4286    0.0000 C   0  0  0  0  0  0  0  0  0  0  0  0
    5.2181    1.0714    0.0000 C   0  0  0  0  0  0  0  0  0  0  0  0
    6.9501    0.0714    0.0000 C   0  0  0  0  0  0  0  0  0  0  0  0
    6.9501    1.0714    0.0000 C   0  0  0  0  0  0  0  0  0  0  0  0
    6.0841    1.5714    0.0000 C   0  0  0  0  0  0  0  0  0  0  0  0
    7.8964   -0.2333    0.0000 C   0  0  0  0  0  0  0  0  0  0  0  0
    8.4800    0.5714    0.0000 C   0  0  0  0  0  0  0  0  0  0  0  0
    4.3520    0.1914    0.0000 H   0  0  0  0  0  0  0  0  0  0  0  0
    4.5641   -2.0112    0.0000 H   0  0  0  0  0  0  0  0  0  0  0  0
    4.9626   -1.3209    0.0000 H   0  0  0  0  0  0  0  0  0  0  0  0
    3.8846    0.5464    0.0000 H   0  0  0  0  0  0  0  0  0  0  0  0
    3.0875    0.5464    0.0000 H   0  0  0  0  0  0  0  0  0  0  0  0
    3.0875   -2.4035    0.0000 H   0  0  0  0  0  0  0  0  0  0  0  0
    3.8846   -2.4035    0.0000 H   0  0  0  0  0  0  0  0  0  0  0  0
    2.4080    0.1540    0.0000 H   0  0  0  0  0  0  0  0  0  0  0  0
    2.0094   -0.5362    0.0000 H   0  0  0  0  0  0  0  0  0  0  0  0
    2.0000   -1.4286    0.0000 H   0  0  0  0  0  0  0  0  0  0  0  0
    2.3100   -1.9655    0.0000 H   0  0  0  0  0  0  0  0  0  0  0  0
    6.0841   -1.0486    0.0000 H   0  0  0  0  0  0  0  0  0  0  0  0
    4.6811    1.3814    0.0000 H   0  0  0  0  0  0  0  0  0  0  0  0
    6.0841    2.1914    0.0000 H   0  0  0  0  0  0  0  0  0  0  0  0
    8.0890   -0.8226    0.0000 H   0  0  0  0  0  0  0  0  0  0  0  0
    8.0890    1.9655    0.0000 H   0  0  0  0  0  0  0  0  0  0  0  0
    9.1000    0.5714    0.0000 H   0  0  0  0  0  0  0  0  0  0  0  0
  1  6  1  0  0  0  0
  1  7  1  0  0  0  0
  1 25  1  0  0  0  0
  1 26  1  0  0  0  0
  2 12  1  0  0  0  0
  2 15  1  0  0  0  0
  2 31  1  0  0  0  0
  3  4  1  0  0  0  0
  3  5  1  0  0  0  0
  3  8  1  0  0  0  0
  3 16  1  0  0  0  0
  4  6  1  0  0  0  0
  4 17  1  0  0  0  0
  4 18  1  0  0  0  0
  5  7  1  0  0  0  0
  5 19  1  0  0  0  0
  5 20  1  0  0  0  0
  6 21  1  0  0  0  0
  6 22  1  0  0  0  0
  7 23  1  0  0  0  0
  7 24  1  0  0  0  0
  8  9  2  0  0  0  0
  8 10  1  0  0  0  0
  9 11  1  0  0  0  0
  9 27  1  0  0  0  0
 10 13  2  0  0  0  0
 10 28  1  0  0  0  0
 11 12  2  0  0  0  0
 11 14  1  0  0  0  0
 12 13  1  0  0  0  0
 13 29  1  0  0  0  0
 14 15  2  0  0  0  0
 14 30  1  0  0  0  0
 15 32  1  0  0  0  0
M  CHG  1   1   1
M  END
> <PUBCHEM_COMPOUND_CID>
27282030

> <PUBCHEM_COMPOUND_CANONICALIZED>
1

> <PUBCHEM_CACTVS_COMPLEXITY>
211

> <PUBCHEM_CACTVS_HBOND_ACCEPTOR>
0

> <PUBCHEM_CACTVS_HBOND_DONOR>
2

> <PUBCHEM_CACTVS_ROTATABLE_BOND>
1

> <PUBCHEM_CACTVS_SUBSKEYS>
AAADceBzAAAAAAAAAAAAAAAAAAAAAWAAAAA8QAAAAAAAAFgB8AAAHAAQAAAADQjBHgQ8wPLJkACgAzRnRACCgCAxAiAI2aA4ZJgIIOLAkZGEIAhgkADIyAcQgMAOiAACAAACAAAQAAQAAAQAAAAAAAAAAA==

> <PUBCHEM_IUPAC_OPENEYE_NAME>
5-piperidin-1-ium-4-yl-1H-indole

> <PUBCHEM_IUPAC_CAS_NAME>
5-(4-piperidin-1-iumyl)-1H-indole

> <PUBCHEM_IUPAC_NAME>
5-piperidin-1-ium-4-yl-1H-indole

> <PUBCHEM_IUPAC_SYSTEMATIC_NAME>
5-piperidin-1-ium-4-yl-1H-indole

> <PUBCHEM_IUPAC_TRADITIONAL_NAME>
5-piperidin-1-ium-4-yl-1H-indole

> <PUBCHEM_IUPAC_INCHI>
InChI=1S/C13H16N2/c1-2-13-12(5-8-15-13)9-11(1)10-3-6-14-7-4-10/h1-2,5,8-10,14-15H,3-4,6-7H2/p+1

> <PUBCHEM_IUPAC_INCHIKEY>
ULMINHJMQWBDGD-UHFFFAOYSA-O

> <PUBCHEM_XLOGP3>
2.4

> <PUBCHEM_EXACT_MASS>
201.139174

> <PUBCHEM_MOLECULAR_FORMULA>
C13H17N2+

> <PUBCHEM_MOLECULAR_WEIGHT>
201.28748

> <PUBCHEM_OPENEYE_CAN_SMILES>
C1C[NH2+]CCC1C2=CC3=C(C=C2)NC=C3

> <PUBCHEM_OPENEYE_ISO_SMILES>
C1C[NH2+]CCC1C2=CC3=C(C=C2)NC=C3

> <PUBCHEM_CACTVS_TPSA>
32.4

> <PUBCHEM_MONOISOTOPIC_WEIGHT>
201.139174

> <PUBCHEM_TOTAL_CHARGE>
1

> <PUBCHEM_HEAVY_ATOM_COUNT>
15

> <PUBCHEM_ATOM_DEF_STEREO_COUNT>
0

> <PUBCHEM_ATOM_UDEF_STEREO_COUNT>
0

> <PUBCHEM_BOND_DEF_STEREO_COUNT>
0

> <PUBCHEM_BOND_UDEF_STEREO_COUNT>
0

> <PUBCHEM_ISOTOPIC_ATOM_COUNT>
0

> <PUBCHEM_COMPONENT_COUNT>
1

> <PUBCHEM_CACTVS_TAUTO_COUNT>
1

> <PUBCHEM_COORDINATE_TYPE>
1
5
255

> <PUBCHEM_BONDANNOTATIONS>
10  13  8
11  12  8
11  14  8
12  13  8
14  15  8
2  12  8
2  15  8
8  10  8
8  9  8
9  11  8

$$$$
27282031
  -OEChem-04041303242D

 31 33  0     0  0  0  0  0  0999 V2000
    2.5369   -1.4470    0.0000 N   0  0  0  0  0  0  0  0  0  0  0  0
    7.8133    1.3577    0.0000 N   0  0  0  0  0  0  0  0  0  0  0  0
    4.2690   -0.4470    0.0000 C   0  0  0  0  0  0  0  0  0  0  0  0
    4.2690   -1.4470    0.0000 C   0  0  0  0  0  0  0  0  0  0  0  0
    3.4030    0.0530    0.0000 C   0  0  0  0  0  0  0  0  0  0  0  0
    3.4030   -1.9470    0.0000 C   0  0  0  0  0  0  0  0  0  0  0  0
    2.5369   -0.4470    0.0000 C   0  0  0  0  0  0  0  0  0  0  0  0
    5.1350    0.0530    0.0000 C   0  0  0  0  0  0  0  0  0  0  0  0
    6.0010   -0.4470    0.0000 C   0  0  0  0  0  0  0  0  0  0  0  0
    5.1350    1.0530    0.0000 C   0  0  0  0  0  0  0  0  0  0  0  0
    6.8671    0.0530    0.0000 C   0  0  0  0  0  0  0  0  0  0  0  0
    6.8671    1.0530    0.0000 C   0  0  0  0  0  0  0  0  0  0  0  0
    6.0010    1.5530    0.0000 C   0  0  0  0  0  0  0  0  0  0  0  0
    7.8133   -0.2518    0.0000 C   0  0  0  0  0  0  0  0  0  0  0  0
    8.3969    0.5530    0.0000 C   0  0  0  0  0  0  0  0  0  0  0  0
    4.2690    0.1730    0.0000 H   0  0  0  0  0  0  0  0  0  0  0  0
    4.4810   -2.0296    0.0000 H   0  0  0  0  0  0  0  0  0  0  0  0
    4.8796   -1.3394    0.0000 H   0  0  0  0  0  0  0  0  0  0  0  0
    3.8015    0.5279    0.0000 H   0  0  0  0  0  0  0  0  0  0  0  0
    3.0044    0.5279    0.0000 H   0  0  0  0  0  0  0  0  0  0  0  0
    3.0044   -2.4220    0.0000 H   0  0  0  0  0  0  0  0  0  0  0  0
    3.8015   -2.4220    0.0000 H   0  0  0  0  0  0  0  0  0  0  0  0
    2.3249    0.1356    0.0000 H   0  0  0  0  0  0  0  0  0  0  0  0
    1.9264   -0.5547    0.0000 H   0  0  0  0  0  0  0  0  0  0  0  0
    2.0000   -1.7570    0.0000 H   0  0  0  0  0  0  0  0  0  0  0  0
    6.0010   -1.0670    0.0000 H   0  0  0  0  0  0  0  0  0  0  0  0
    4.5981    1.3630    0.0000 H   0  0  0  0  0  0  0  0  0  0  0  0
    6.0010    2.1730    0.0000 H   0  0  0  0  0  0  0  0  0  0  0  0
    8.0059   -0.8411    0.0000 H   0  0  0  0  0  0  0  0  0  0  0  0
    8.0059    1.9470    0.0000 H   0  0  0  0  0  0  0  0  0  0  0  0
    9.0169    0.5530    0.0000 H   0  0  0  0  0  0  0  0  0  0  0  0
  1  6  1  0  0  0  0
  1  7  1  0  0  0  0
  1 25  1  0  0  0  0
  2 12  1  0  0  0  0
  2 15  1  0  0  0  0
  2 30  1  0  0  0  0
  3  4  1  0  0  0  0
  3  5  1  0  0  0  0
  3  8  1  0  0  0  0
  3 16  1  0  0  0  0
  4  6  1  0  0  0  0
  4 17  1  0  0  0  0
  4 18  1  0  0  0  0
  5  7  1  0  0  0  0
  5 19  1  0  0  0  0
  5 20  1  0  0  0  0
  6 21  1  0  0  0  0
  6 22  1  0  0  0  0
  7 23  1  0  0  0  0
  7 24  1  0  0  0  0
  8  9  2  0  0  0  0
  8 10  1  0  0  0  0
  9 11  1  0  0  0  0
  9 26  1  0  0  0  0
 10 13  2  0  0  0  0
 10 27  1  0  0  0  0
 11 12  2  0  0  0  0
 11 14  1  0  0  0  0
 12 13  1  0  0  0  0
 13 28  1  0  0  0  0
 14 15  2  0  0  0  0
 14 29  1  0  0  0  0
 15 31  1  0  0  0  0
M  END
> <PUBCHEM_COMPOUND_CID>
27282031

> <PUBCHEM_COMPOUND_CANONICALIZED>
1

> <PUBCHEM_CACTVS_COMPLEXITY>
211

> <PUBCHEM_CACTVS_HBOND_ACCEPTOR>
1

> <PUBCHEM_CACTVS_HBOND_DONOR>
2

> <PUBCHEM_CACTVS_ROTATABLE_BOND>
1

> <PUBCHEM_CACTVS_SUBSKEYS>
AAADceBzAAAAAAAAAAAAAAAAAAAAAWAAAAA8QAAAAAAAAFgB8AAAHAAQAAAADQjBHgQ8wPLJkACgAzRnRACCgCAxAiAI2aA4ZJgIIOLAkZGEIAhgkADIyAcQgMAOiAACAAACAAAQAAQAAAQAAAAAAAAAAA==

> <PUBCHEM_IUPAC_OPENEYE_NAME>
5-(4-piperidyl)-1H-indole

> <PUBCHEM_IUPAC_CAS_NAME>
5-(4-piperidinyl)-1H-indole

> <PUBCHEM_IUPAC_NAME>
5-piperidin-4-yl-1H-indole

> <PUBCHEM_IUPAC_SYSTEMATIC_NAME>
5-piperidin-4-yl-1H-indole

> <PUBCHEM_IUPAC_TRADITIONAL_NAME>
5-(4-piperidyl)-1H-indole

> <PUBCHEM_IUPAC_INCHI>
InChI=1S/C13H16N2/c1-2-13-12(5-8-15-13)9-11(1)10-3-6-14-7-4-10/h1-2,5,8-10,14-15H,3-4,6-7H2

> <PUBCHEM_IUPAC_INCHIKEY>
ULMINHJMQWBDGD-UHFFFAOYSA-N

> <PUBCHEM_XLOGP3>
2.4

> <PUBCHEM_EXACT_MASS>
200.131349

> <PUBCHEM_MOLECULAR_FORMULA>
C13H16N2

> <PUBCHEM_MOLECULAR_WEIGHT>
200.27954

> <PUBCHEM_OPENEYE_CAN_SMILES>
C1CNCCC1C2=CC3=C(C=C2)NC=C3

> <PUBCHEM_OPENEYE_ISO_SMILES>
C1CNCCC1C2=CC3=C(C=C2)NC=C3

> <PUBCHEM_CACTVS_TPSA>
27.8

> <PUBCHEM_MONOISOTOPIC_WEIGHT>
200.131349

> <PUBCHEM_TOTAL_CHARGE>
0

> <PUBCHEM_HEAVY_ATOM_COUNT>
15

> <PUBCHEM_ATOM_DEF_STEREO_COUNT>
0

> <PUBCHEM_ATOM_UDEF_STEREO_COUNT>
0

> <PUBCHEM_BOND_DEF_STEREO_COUNT>
0

> <PUBCHEM_BOND_UDEF_STEREO_COUNT>
0

> <PUBCHEM_ISOTOPIC_ATOM_COUNT>
0

> <PUBCHEM_COMPONENT_COUNT>
1

> <PUBCHEM_CACTVS_TAUTO_COUNT>
1

> <PUBCHEM_COORDINATE_TYPE>
1
5
255

> <PUBCHEM_BONDANNOTATIONS>
10  13  8
11  12  8
11  14  8
12  13  8
14  15  8
2  12  8
2  15  8
8  10  8
8  9  8
9  11  8

$$$$
27282078
  -OEChem-04041303242D

 22 22  0     0  0  0  0  0  0999 V2000
    5.4641    1.9400    0.0000 N   0  3  0  0  0  0  0  0  0  0  0  0
    2.0000   -0.0600    0.0000 N   0  0  0  0  0  0  0  0  0  0  0  0
    4.5981    0.4400    0.0000 C   0  0  0  0  0  0  0  0  0  0  0  0
    5.4641    0.9400    0.0000 C   0  0  0  0  0  0  0  0  0  0  0  0
    4.5981   -0.5600    0.0000 C   0  0  0  0  0  0  0  0  0  0  0  0
    3.7320   -1.0600    0.0000 C   0  0  0  0  0  0  0  0  0  0  0  0
    5.4641   -1.0600    0.0000 C   0  0  0  0  0  0  0  0  0  0  0  0
    3.7320   -2.0600    0.0000 C   0  0  0  0  0  0  0  0  0  0  0  0
    5.4641   -2.0600    0.0000 C   0  0  0  0  0  0  0  0  0  0  0  0
    4.5981   -2.5600    0.0000 C   0  0  0  0  0  0  0  0  0  0  0  0
    2.8660   -0.5600    0.0000 C   0  0  0  0  0  0  0  0  0  0  0  0
    4.3860    1.0226    0.0000 H   0  0  0  0  0  0  0  0  0  0  0  0
    3.9875    0.3323    0.0000 H   0  0  0  0  0  0  0  0  0  0  0  0
    5.6762    0.3574    0.0000 H   0  0  0  0  0  0  0  0  0  0  0  0
    6.0747    1.0477    0.0000 H   0  0  0  0  0  0  0  0  0  0  0  0
    6.0010   -0.7500    0.0000 H   0  0  0  0  0  0  0  0  0  0  0  0
    5.4641    2.5600    0.0000 H   0  0  0  0  0  0  0  0  0  0  0  0
    6.0841    1.9400    0.0000 H   0  0  0  0  0  0  0  0  0  0  0  0
    4.8441    1.9400    0.0000 H   0  0  0  0  0  0  0  0  0  0  0  0
    3.1951   -2.3700    0.0000 H   0  0  0  0  0  0  0  0  0  0  0  0
    6.0010   -2.3700    0.0000 H   0  0  0  0  0  0  0  0  0  0  0  0
    4.5981   -3.1800    0.0000 H   0  0  0  0  0  0  0  0  0  0  0  0
  1  4  1  0  0  0  0
  1 17  1  0  0  0  0
  1 18  1  0  0  0  0
  1 19  1  0  0  0  0
  2 11  3  0  0  0  0
  3  4  1  0  0  0  0
  3  5  1  0  0  0  0
  3 12  1  0  0  0  0
  3 13  1  0  0  0  0
  4 14  1  0  0  0  0
  4 15  1  0  0  0  0
  5  6  1  0  0  0  0
  5  7  2  0  0  0  0
  6  8  2  0  0  0  0
  6 11  1  0  0  0  0
  7  9  1  0  0  0  0
  7 16  1  0  0  0  0
  8 10  1  0  0  0  0
  8 20  1  0  0  0  0
  9 10  2  0  0  0  0
  9 21  1  0  0  0  0
 10 22  1  0  0  0  0
M  CHG  1   1   1
M  END
> <PUBCHEM_COMPOUND_CID>
27282078

> <PUBCHEM_COMPOUND_CANONICALIZED>
1

> <PUBCHEM_CACTVS_COMPLEXITY>
156

> <PUBCHEM_CACTVS_HBOND_ACCEPTOR>
1

> <PUBCHEM_CACTVS_HBOND_DONOR>
1

> <PUBCHEM_CACTVS_ROTATABLE_BOND>
2

> <PUBCHEM_CACTVS_SUBSKEYS>
AAADccBzAAAAAAAAAAAAAAAAAAAAAAAAAAAwAAAAAAAAAAABAAAAHAAQAAAADADBGAQwAIBAAACQBiBCAAAiAAAgAAAIiIAAAIgIoCKAkRGAIAAgkAAIiA8QgIAOgAAAAAAQAAAAAAAAACAAAAAAAAAAAA==

> <PUBCHEM_IUPAC_OPENEYE_NAME>
2-(2-cyanophenyl)ethylammonium

> <PUBCHEM_IUPAC_CAS_NAME>
2-(2-cyanophenyl)ethylammonium

> <PUBCHEM_IUPAC_NAME>
2-(2-cyanophenyl)ethylazanium

> <PUBCHEM_IUPAC_SYSTEMATIC_NAME>
2-(2-cyanophenyl)ethylazanium

> <PUBCHEM_IUPAC_TRADITIONAL_NAME>
2-(2-cyanophenyl)ethylammonium

> <PUBCHEM_IUPAC_INCHI>
InChI=1S/C9H10N2/c10-6-5-8-3-1-2-4-9(8)7-11/h1-4H,5-6,10H2/p+1

> <PUBCHEM_IUPAC_INCHIKEY>
KXTMEODRUCUIJI-UHFFFAOYSA-O

> <PUBCHEM_XLOGP3>
1.2

> <PUBCHEM_EXACT_MASS>
147.092223

> <PUBCHEM_MOLECULAR_FORMULA>
C9H11N2+

> <PUBCHEM_MOLECULAR_WEIGHT>
147.19704

> <PUBCHEM_OPENEYE_CAN_SMILES>
C1=CC=C(C(=C1)CC[NH3+])C#N

> <PUBCHEM_OPENEYE_ISO_SMILES>
C1=CC=C(C(=C1)CC[NH3+])C#N

> <PUBCHEM_CACTVS_TPSA>
51.4

> <PUBCHEM_MONOISOTOPIC_WEIGHT>
147.092223

> <PUBCHEM_TOTAL_CHARGE>
1

> <PUBCHEM_HEAVY_ATOM_COUNT>
11

> <PUBCHEM_ATOM_DEF_STEREO_COUNT>
0

> <PUBCHEM_ATOM_UDEF_STEREO_COUNT>
0

> <PUBCHEM_BOND_DEF_STEREO_COUNT>
0

> <PUBCHEM_BOND_UDEF_STEREO_COUNT>
0

> <PUBCHEM_ISOTOPIC_ATOM_COUNT>
0

> <PUBCHEM_COMPONENT_COUNT>
1

> <PUBCHEM_CACTVS_TAUTO_COUNT>
1

> <PUBCHEM_COORDINATE_TYPE>
1
5
255

> <PUBCHEM_BONDANNOTATIONS>
5  6  8
5  7  8
6  8  8
7  9  8
8  10  8
9  10  8

$$$$
