24151971
  -OEChem-11301217342D

 38 40  0     1  0  0  0  0  0999 V2000
    6.3301    1.4330    0.0000 O   0  0  0  0  0  0  0  0  0  0  0  0
    5.4641   -0.0670    0.0000 N   0  0  0  0  0  0  0  0  0  0  0  0
    4.5981    1.4330    0.0000 N   0  0  0  0  0  0  0  0  0  0  0  0
    6.8301   -1.4330    0.0000 C   0  0  3  0  0  0  0  0  0  0  0  0
    6.3301   -0.5670    0.0000 C   0  0  3  0  0  0  0  0  0  0  0  0
    7.3301   -0.5670    0.0000 C   0  0  0  0  0  0  0  0  0  0  0  0
    6.8301   -2.4330    0.0000 C   0  0  0  0  0  0  0  0  0  0  0  0
    5.9641   -2.9330    0.0000 C   0  0  0  0  0  0  0  0  0  0  0  0
    7.6962   -2.9330    0.0000 C   0  0  0  0  0  0  0  0  0  0  0  0
    5.4641    0.9330    0.0000 C   0  0  0  0  0  0  0  0  0  0  0  0
    5.9641   -3.9330    0.0000 C   0  0  0  0  0  0  0  0  0  0  0  0
    7.6962   -3.9330    0.0000 C   0  0  0  0  0  0  0  0  0  0  0  0
    6.8301   -4.4330    0.0000 C   0  0  0  0  0  0  0  0  0  0  0  0
    4.5981    2.4330    0.0000 C   0  0  0  0  0  0  0  0  0  0  0  0
    3.7320    2.9330    0.0000 C   0  0  0  0  0  0  0  0  0  0  0  0
    3.7320    3.9330    0.0000 C   0  0  0  0  0  0  0  0  0  0  0  0
    2.8660    2.4330    0.0000 C   0  0  0  0  0  0  0  0  0  0  0  0
    2.8660    4.4330    0.0000 C   0  0  0  0  0  0  0  0  0  0  0  0
    2.0000    2.9330    0.0000 C   0  0  0  0  0  0  0  0  0  0  0  0
    2.0000    3.9330    0.0000 C   0  0  0  0  0  0  0  0  0  0  0  0
    7.4290   -1.5935    0.0000 H   0  0  0  0  0  0  0  0  0  0  0  0
    6.4906    0.0319    0.0000 H   0  0  0  0  0  0  0  0  0  0  0  0
    7.9127   -0.7790    0.0000 H   0  0  0  0  0  0  0  0  0  0  0  0
    7.4378    0.0436    0.0000 H   0  0  0  0  0  0  0  0  0  0  0  0
    4.9272   -0.3770    0.0000 H   0  0  0  0  0  0  0  0  0  0  0  0
    5.4272   -2.6230    0.0000 H   0  0  0  0  0  0  0  0  0  0  0  0
    8.2331   -2.6230    0.0000 H   0  0  0  0  0  0  0  0  0  0  0  0
    5.4272   -4.2430    0.0000 H   0  0  0  0  0  0  0  0  0  0  0  0
    8.2331   -4.2430    0.0000 H   0  0  0  0  0  0  0  0  0  0  0  0
    4.0611    1.1230    0.0000 H   0  0  0  0  0  0  0  0  0  0  0  0
    6.8301   -5.0530    0.0000 H   0  0  0  0  0  0  0  0  0  0  0  0
    5.2087    2.3253    0.0000 H   0  0  0  0  0  0  0  0  0  0  0  0
    4.8101    3.0156    0.0000 H   0  0  0  0  0  0  0  0  0  0  0  0
    4.2690    4.2430    0.0000 H   0  0  0  0  0  0  0  0  0  0  0  0
    2.8660    1.8130    0.0000 H   0  0  0  0  0  0  0  0  0  0  0  0
    2.8660    5.0530    0.0000 H   0  0  0  0  0  0  0  0  0  0  0  0
    1.4631    2.6230    0.0000 H   0  0  0  0  0  0  0  0  0  0  0  0
    1.4631    4.2430    0.0000 H   0  0  0  0  0  0  0  0  0  0  0  0
  1 10  2  0  0  0  0
  2  5  1  0  0  0  0
  2 10  1  0  0  0  0
  2 25  1  0  0  0  0
  3 10  1  0  0  0  0
  3 14  1  0  0  0  0
  3 30  1  0  0  0  0
  4  5  1  0  0  0  0
  4  6  1  0  0  0  0
  4  7  1  0  0  0  0
  4 21  1  0  0  0  0
  5  6  1  0  0  0  0
  5 22  1  0  0  0  0
  6 23  1  0  0  0  0
  6 24  1  0  0  0  0
  7  8  2  0  0  0  0
  7  9  1  0  0  0  0
  8 11  1  0  0  0  0
  8 26  1  0  0  0  0
  9 12  2  0  0  0  0
  9 27  1  0  0  0  0
 11 13  2  0  0  0  0
 11 28  1  0  0  0  0
 12 13  1  0  0  0  0
 12 29  1  0  0  0  0
 13 31  1  0  0  0  0
 14 15  1  0  0  0  0
 14 32  1  0  0  0  0
 14 33  1  0  0  0  0
 15 16  2  0  0  0  0
 15 17  1  0  0  0  0
 16 18  1  0  0  0  0
 16 34  1  0  0  0  0
 17 19  2  0  0  0  0
 17 35  1  0  0  0  0
 18 20  2  0  0  0  0
 18 36  1  0  0  0  0
 19 20  1  0  0  0  0
 19 37  1  0  0  0  0
 20 38  1  0  0  0  0
M  END
> <PUBCHEM_COMPOUND_CID>
24151971

> <PUBCHEM_COMPOUND_CANONICALIZED>
1

> <PUBCHEM_CACTVS_COMPLEXITY>
319

> <PUBCHEM_CACTVS_HBOND_ACCEPTOR>
1

> <PUBCHEM_CACTVS_HBOND_DONOR>
2

> <PUBCHEM_CACTVS_ROTATABLE_BOND>
4

> <PUBCHEM_CACTVS_SUBSKEYS>
AAADceB7IAAAAAAAAAAAAAAAGAAAAAAAAAAwYAAAAAAAAAABQAAAHgAQAAAADSjBGAQxAILAAACIAiBCEACCAAAgAAAIiIAIBIiIICKAkRGEIAholgIIiAcQgMAOgAAAAAAAAAAAAAAAAAAAAAAAAAAAAA==

> <PUBCHEM_IUPAC_OPENEYE_NAME>
1-benzyl-3-(2-phenylcyclopropyl)urea

> <PUBCHEM_IUPAC_CAS_NAME>
1-(2-phenylcyclopropyl)-3-(phenylmethyl)urea

> <PUBCHEM_IUPAC_NAME>
1-benzyl-3-(2-phenylcyclopropyl)urea

> <PUBCHEM_IUPAC_SYSTEMATIC_NAME>
1-(2-phenylcyclopropyl)-3-(phenylmethyl)urea

> <PUBCHEM_IUPAC_TRADITIONAL_NAME>
1-benzyl-3-(2-phenylcyclopropyl)urea

> <PUBCHEM_IUPAC_INCHI>
InChI=1S/C17H18N2O/c20-17(18-12-13-7-3-1-4-8-13)19-16-11-15(16)14-9-5-2-6-10-14/h1-10,15-16H,11-12H2,(H2,18,19,20)

> <PUBCHEM_IUPAC_INCHIKEY>
NJMJQVYBPOZUTA-UHFFFAOYSA-N

> <PUBCHEM_XLOGP3>
2.8

> <PUBCHEM_EXACT_MASS>
266.141913

> <PUBCHEM_MOLECULAR_FORMULA>
C17H18N2O

> <PUBCHEM_MOLECULAR_WEIGHT>
266.33762

> <PUBCHEM_OPENEYE_CAN_SMILES>
C1C(C1NC(=O)NCC2=CC=CC=C2)C3=CC=CC=C3

> <PUBCHEM_OPENEYE_ISO_SMILES>
C1C(C1NC(=O)NCC2=CC=CC=C2)C3=CC=CC=C3

> <PUBCHEM_CACTVS_TPSA>
41.1

> <PUBCHEM_MONOISOTOPIC_WEIGHT>
266.141913

> <PUBCHEM_TOTAL_CHARGE>
0

> <PUBCHEM_HEAVY_ATOM_COUNT>
20

> <PUBCHEM_ATOM_DEF_STEREO_COUNT>
0

> <PUBCHEM_ATOM_UDEF_STEREO_COUNT>
2

> <PUBCHEM_BOND_DEF_STEREO_COUNT>
0

> <PUBCHEM_BOND_UDEF_STEREO_COUNT>
0

> <PUBCHEM_ISOTOPIC_ATOM_COUNT>
0

> <PUBCHEM_COMPONENT_COUNT>
1

> <PUBCHEM_CACTVS_TAUTO_COUNT>
3

> <PUBCHEM_COORDINATE_TYPE>
1
5
255

> <PUBCHEM_BONDANNOTATIONS>
11  13  8
12  13  8
15  16  8
15  17  8
16  18  8
17  19  8
18  20  8
19  20  8
5  2  3
4  7  3
7  8  8
7  9  8
8  11  8
9  12  8

$$$$
24159522
  -OEChem-11301217352D

 30 32  0     0  0  0  0  0  0999 V2000
    3.3660   -0.3343    0.0000 N   0  0  0  0  0  0  0  0  0  0  0  0
    2.5000   -1.8343    0.0000 C   0  0  0  0  0  0  0  0  0  0  0  0
    2.0000   -2.7003    0.0000 C   0  0  0  0  0  0  0  0  0  0  0  0
    3.0000   -2.7003    0.0000 C   0  0  0  0  0  0  0  0  0  0  0  0
    2.5000   -0.8343    0.0000 C   0  0  0  0  0  0  0  0  0  0  0  0
    3.3660    0.6657    0.0000 C   0  0  0  0  0  0  0  0  0  0  0  0
    4.2320    1.1657    0.0000 C   0  0  0  0  0  0  0  0  0  0  0  0
    2.5000    1.1657    0.0000 C   0  0  0  0  0  0  0  0  0  0  0  0
    4.2320    2.1657    0.0000 C   0  0  0  0  0  0  0  0  0  0  0  0
    5.1260    0.6310    0.0000 C   0  0  0  0  0  0  0  0  0  0  0  0
    2.5000    2.1657    0.0000 C   0  0  0  0  0  0  0  0  0  0  0  0
    3.3660    2.6657    0.0000 C   0  0  0  0  0  0  0  0  0  0  0  0
    5.1260    2.7003    0.0000 C   0  0  0  0  0  0  0  0  0  0  0  0
    6.0321    1.1449    0.0000 C   0  0  0  0  0  0  0  0  0  0  0  0
    6.0321    2.1865    0.0000 C   0  0  0  0  0  0  0  0  0  0  0  0
    3.0989   -1.6738    0.0000 H   0  0  0  0  0  0  0  0  0  0  0  0
    1.4174   -2.4883    0.0000 H   0  0  0  0  0  0  0  0  0  0  0  0
    1.8923   -3.3109    0.0000 H   0  0  0  0  0  0  0  0  0  0  0  0
    3.1077   -3.3109    0.0000 H   0  0  0  0  0  0  0  0  0  0  0  0
    3.5826   -2.4883    0.0000 H   0  0  0  0  0  0  0  0  0  0  0  0
    2.2880   -0.2517    0.0000 H   0  0  0  0  0  0  0  0  0  0  0  0
    1.8894   -0.9420    0.0000 H   0  0  0  0  0  0  0  0  0  0  0  0
    3.9030   -0.6443    0.0000 H   0  0  0  0  0  0  0  0  0  0  0  0
    1.9631    0.8557    0.0000 H   0  0  0  0  0  0  0  0  0  0  0  0
    5.1188    0.0111    0.0000 H   0  0  0  0  0  0  0  0  0  0  0  0
    3.3660    3.2857    0.0000 H   0  0  0  0  0  0  0  0  0  0  0  0
    1.9631    2.4757    0.0000 H   0  0  0  0  0  0  0  0  0  0  0  0
    5.1188    3.3203    0.0000 H   0  0  0  0  0  0  0  0  0  0  0  0
    6.5678    0.8328    0.0000 H   0  0  0  0  0  0  0  0  0  0  0  0
    6.5678    2.4986    0.0000 H   0  0  0  0  0  0  0  0  0  0  0  0
  1  5  1  0  0  0  0
  1  6  1  0  0  0  0
  1 23  1  0  0  0  0
  2  3  1  0  0  0  0
  2  4  1  0  0  0  0
  2  5  1  0  0  0  0
  2 16  1  0  0  0  0
  3  4  1  0  0  0  0
  3 17  1  0  0  0  0
  3 18  1  0  0  0  0
  4 19  1  0  0  0  0
  4 20  1  0  0  0  0
  5 21  1  0  0  0  0
  5 22  1  0  0  0  0
  6  7  1  0  0  0  0
  6  8  2  0  0  0  0
  7  9  1  0  0  0  0
  7 10  2  0  0  0  0
  8 11  1  0  0  0  0
  8 24  1  0  0  0  0
  9 12  1  0  0  0  0
  9 13  2  0  0  0  0
 10 14  1  0  0  0  0
 10 25  1  0  0  0  0
 11 12  2  0  0  0  0
 11 27  1  0  0  0  0
 12 26  1  0  0  0  0
 13 15  1  0  0  0  0
 13 28  1  0  0  0  0
 14 15  2  0  0  0  0
 14 29  1  0  0  0  0
 15 30  1  0  0  0  0
M  END
> <PUBCHEM_COMPOUND_CID>
24159522

> <PUBCHEM_COMPOUND_CANONICALIZED>
1

> <PUBCHEM_CACTVS_COMPLEXITY>
209

> <PUBCHEM_CACTVS_HBOND_ACCEPTOR>
1

> <PUBCHEM_CACTVS_HBOND_DONOR>
1

> <PUBCHEM_CACTVS_ROTATABLE_BOND>
3

> <PUBCHEM_CACTVS_SUBSKEYS>
AAADccByAAAAAAAAAAAAAAAAGAAAAAAAAAAwYAAAAAAAAADBUAAAHAAQAAAADQjBGAQwwMLAAACAAiRCQACCAAAhAgAIiIAIZIgIICLAkZGEIAhgkADIyAcQgIAOgAAAQAASAAAAAACAACQAAAAAAAAAAA==

> <PUBCHEM_IUPAC_OPENEYE_NAME>
N-(cyclopropylmethyl)naphthalen-1-amine

> <PUBCHEM_IUPAC_CAS_NAME>
N-(cyclopropylmethyl)-1-naphthalenamine

> <PUBCHEM_IUPAC_NAME>
N-(cyclopropylmethyl)naphthalen-1-amine

> <PUBCHEM_IUPAC_SYSTEMATIC_NAME>
N-(cyclopropylmethyl)naphthalen-1-amine

> <PUBCHEM_IUPAC_TRADITIONAL_NAME>
cyclopropylmethyl(1-naphthyl)amine

> <PUBCHEM_IUPAC_INCHI>
InChI=1S/C14H15N/c1-2-6-13-12(4-1)5-3-7-14(13)15-10-11-8-9-11/h1-7,11,15H,8-10H2

> <PUBCHEM_IUPAC_INCHIKEY>
IOFBJGBFESDLHF-UHFFFAOYSA-N

> <PUBCHEM_XLOGP3>
3.6

> <PUBCHEM_EXACT_MASS>
197.120449

> <PUBCHEM_MOLECULAR_FORMULA>
C14H15N

> <PUBCHEM_MOLECULAR_WEIGHT>
197.2756

> <PUBCHEM_OPENEYE_CAN_SMILES>
C1CC1CNC2=CC=CC3=CC=CC=C32

> <PUBCHEM_OPENEYE_ISO_SMILES>
C1CC1CNC2=CC=CC3=CC=CC=C32

> <PUBCHEM_CACTVS_TPSA>
12

> <PUBCHEM_MONOISOTOPIC_WEIGHT>
197.120449

> <PUBCHEM_TOTAL_CHARGE>
0

> <PUBCHEM_HEAVY_ATOM_COUNT>
15

> <PUBCHEM_ATOM_DEF_STEREO_COUNT>
0

> <PUBCHEM_ATOM_UDEF_STEREO_COUNT>
0

> <PUBCHEM_BOND_DEF_STEREO_COUNT>
0

> <PUBCHEM_BOND_UDEF_STEREO_COUNT>
0

> <PUBCHEM_ISOTOPIC_ATOM_COUNT>
0

> <PUBCHEM_COMPONENT_COUNT>
1

> <PUBCHEM_CACTVS_TAUTO_COUNT>
1

> <PUBCHEM_COORDINATE_TYPE>
1
5
255

> <PUBCHEM_BONDANNOTATIONS>
10  14  8
11  12  8
13  15  8
14  15  8
6  7  8
6  8  8
7  10  8
7  9  8
8  11  8
9  12  8
9  13  8

$$$$
