27001637
  -OEChem-06121304412D

 35 35  0     0  0  0  0  0  0999 V2000
    4.5981    3.5000    0.0000 O   0  0  0  0  0  0  0  0  0  0  0  0
    3.7320    2.0000    0.0000 O   0  0  0  0  0  0  0  0  0  0  0  0
    8.9282    2.0000    0.0000 O   0  5  0  0  0  0  0  0  0  0  0  0
    8.0622    3.5000    0.0000 O   0  0  0  0  0  0  0  0  0  0  0  0
    2.0000   -1.0000    0.0000 O   0  5  0  0  0  0  0  0  0  0  0  0
    2.8660    0.5000    0.0000 O   0  0  0  0  0  0  0  0  0  0  0  0
    5.4641   -4.0000    0.0000 O   0  5  0  0  0  0  0  0  0  0  0  0
    3.7320   -4.0000    0.0000 O   0  0  0  0  0  0  0  0  0  0  0  0
    4.5981    0.5000    0.0000 N   0  0  0  0  0  0  0  0  0  0  0  0
    5.4641    1.0000    0.0000 N   0  0  0  0  0  0  0  0  0  0  0  0
    2.8660   -0.5000    0.0000 N   0  3  0  0  0  0  0  0  0  0  0  0
    4.5981   -3.5000    0.0000 N   0  3  0  0  0  0  0  0  0  0  0  0
    6.3301    2.5000    0.0000 C   0  0  0  0  0  0  0  0  0  0  0  0
    4.5981   -0.5000    0.0000 C   0  0  0  0  0  0  0  0  0  0  0  0
    5.4641    2.0000    0.0000 C   0  0  0  0  0  0  0  0  0  0  0  0
    7.1962    2.0000    0.0000 C   0  0  0  0  0  0  0  0  0  0  0  0
    3.7320   -1.0000    0.0000 C   0  0  0  0  0  0  0  0  0  0  0  0
    5.4641   -1.0000    0.0000 C   0  0  0  0  0  0  0  0  0  0  0  0
    3.7320   -2.0000    0.0000 C   0  0  0  0  0  0  0  0  0  0  0  0
    4.5981   -2.5000    0.0000 C   0  0  0  0  0  0  0  0  0  0  0  0
    5.4641   -2.0000    0.0000 C   0  0  0  0  0  0  0  0  0  0  0  0
    4.5981    2.5000    0.0000 C   0  0  0  0  0  0  0  0  0  0  0  0
    8.0622    2.5000    0.0000 C   0  0  0  0  0  0  0  0  0  0  0  0
    3.7320    4.0000    0.0000 C   0  0  0  0  0  0  0  0  0  0  0  0
    6.7287    2.9750    0.0000 H   0  0  0  0  0  0  0  0  0  0  0  0
    5.9316    2.9750    0.0000 H   0  0  0  0  0  0  0  0  0  0  0  0
    6.7976    1.5250    0.0000 H   0  0  0  0  0  0  0  0  0  0  0  0
    7.5947    1.5250    0.0000 H   0  0  0  0  0  0  0  0  0  0  0  0
    6.0010   -0.6900    0.0000 H   0  0  0  0  0  0  0  0  0  0  0  0
    3.1951   -2.3100    0.0000 H   0  0  0  0  0  0  0  0  0  0  0  0
    4.0611    0.8100    0.0000 H   0  0  0  0  0  0  0  0  0  0  0  0
    6.0010   -2.3100    0.0000 H   0  0  0  0  0  0  0  0  0  0  0  0
    4.0420    4.5369    0.0000 H   0  0  0  0  0  0  0  0  0  0  0  0
    3.1951    4.3100    0.0000 H   0  0  0  0  0  0  0  0  0  0  0  0
    3.4220    3.4631    0.0000 H   0  0  0  0  0  0  0  0  0  0  0  0
  1 22  1  0  0  0  0
  1 24  1  0  0  0  0
  2 22  2  0  0  0  0
  3 23  1  0  0  0  0
  4 23  2  0  0  0  0
  5 11  1  0  0  0  0
  6 11  2  0  0  0  0
  7 12  1  0  0  0  0
  8 12  2  0  0  0  0
  9 10  1  0  0  0  0
  9 14  1  0  0  0  0
  9 31  1  0  0  0  0
 10 15  2  0  0  0  0
 11 17  1  0  0  0  0
 12 20  1  0  0  0  0
 13 15  1  0  0  0  0
 13 16  1  0  0  0  0
 13 25  1  0  0  0  0
 13 26  1  0  0  0  0
 14 17  2  0  0  0  0
 14 18  1  0  0  0  0
 15 22  1  0  0  0  0
 16 23  1  0  0  0  0
 16 27  1  0  0  0  0
 16 28  1  0  0  0  0
 17 19  1  0  0  0  0
 18 21  2  0  0  0  0
 18 29  1  0  0  0  0
 19 20  2  0  0  0  0
 19 30  1  0  0  0  0
 20 21  1  0  0  0  0
 21 32  1  0  0  0  0
 24 33  1  0  0  0  0
 24 34  1  0  0  0  0
 24 35  1  0  0  0  0
M  CHG  5   3  -1   5  -1   7  -1  11   1  12   1
M  END
> <PUBCHEM_COMPOUND_CID>
27001637

> <PUBCHEM_COMPOUND_CANONICALIZED>
1

> <PUBCHEM_CACTVS_COMPLEXITY>
533

> <PUBCHEM_CACTVS_HBOND_ACCEPTOR>
10

> <PUBCHEM_CACTVS_HBOND_DONOR>
1

> <PUBCHEM_CACTVS_ROTATABLE_BOND>
6

> <PUBCHEM_CACTVS_SUBSKEYS>
AAADccBzvAAAAAAAAAAAAAAAAAAAAAAAAAAwAAAAAAAAAAABAAAAHgAcAAAACAiBkAIyyIByRACpASTySwSSBAAgAgA4iAEwdIoIYDKA0dGAIABkmIAIyAeYJggAAACAAAQAACAAAQAACAAAQAAAAAAAAA==

> <PUBCHEM_IUPAC_OPENEYE_NAME>
(4Z)-4-[(2,4-dinitrophenyl)hydrazono]-5-methoxy-5-oxo-pentanoate

> <PUBCHEM_IUPAC_CAS_NAME>
(4Z)-4-[(2,4-dinitrophenyl)hydrazinylidene]-5-methoxy-5-oxopentanoate

> <PUBCHEM_IUPAC_NAME>
(4Z)-4-[(2,4-dinitrophenyl)hydrazinylidene]-5-methoxy-5-oxopentanoate

> <PUBCHEM_IUPAC_SYSTEMATIC_NAME>
(4Z)-4-[(2,4-dinitrophenyl)hydrazinylidene]-5-methoxy-5-oxidanylidene-pentanoate

> <PUBCHEM_IUPAC_TRADITIONAL_NAME>
(4Z)-4-[(2,4-dinitrophenyl)hydrazono]-5-keto-5-methoxy-valerate

> <PUBCHEM_IUPAC_INCHI>
InChI=1S/C12H12N4O8/c1-24-12(19)9(4-5-11(17)18)14-13-8-3-2-7(15(20)21)6-10(8)16(22)23/h2-3,6,13H,4-5H2,1H3,(H,17,18)/p-1/b14-9-

> <PUBCHEM_IUPAC_INCHIKEY>
GSUKTQKYWZCBRR-ZROIWOOFSA-M

> <PUBCHEM_XLOGP3>
3.7

> <PUBCHEM_EXACT_MASS>
339.057688

> <PUBCHEM_MOLECULAR_FORMULA>
C12H11N4O8-

> <PUBCHEM_MOLECULAR_WEIGHT>
339.23774

> <PUBCHEM_OPENEYE_CAN_SMILES>
COC(=O)C(=NNC1=C(C=C(C=C1)[N+](=O)[O-])[N+](=O)[O-])CCC(=O)[O-]

> <PUBCHEM_OPENEYE_ISO_SMILES>
COC(=O)/C(=N\NC1=C(C=C(C=C1)[N+](=O)[O-])[N+](=O)[O-])/CCC(=O)[O-]

> <PUBCHEM_CACTVS_TPSA>
183

> <PUBCHEM_MONOISOTOPIC_WEIGHT>
339.057688

> <PUBCHEM_TOTAL_CHARGE>
-1

> <PUBCHEM_HEAVY_ATOM_COUNT>
24

> <PUBCHEM_ATOM_DEF_STEREO_COUNT>
0

> <PUBCHEM_ATOM_UDEF_STEREO_COUNT>
0

> <PUBCHEM_BOND_DEF_STEREO_COUNT>
1

> <PUBCHEM_BOND_UDEF_STEREO_COUNT>
0

> <PUBCHEM_ISOTOPIC_ATOM_COUNT>
0

> <PUBCHEM_COMPONENT_COUNT>
1

> <PUBCHEM_CACTVS_TAUTO_COUNT>
3

> <PUBCHEM_COORDINATE_TYPE>
1
5
255

> <PUBCHEM_BONDANNOTATIONS>
14  17  8
14  18  8
17  19  8
18  21  8
19  20  8
20  21  8

$$$$
27001638
  -OEChem-06121304412D

 36 36  0     0  0  0  0  0  0999 V2000
    4.5981    3.5000    0.0000 O   0  0  0  0  0  0  0  0  0  0  0  0
    8.9282    2.0000    0.0000 O   0  0  0  0  0  0  0  0  0  0  0  0
    3.7320    2.0000    0.0000 O   0  0  0  0  0  0  0  0  0  0  0  0
    8.0622    3.5000    0.0000 O   0  0  0  0  0  0  0  0  0  0  0  0
    2.0000   -1.0000    0.0000 O   0  5  0  0  0  0  0  0  0  0  0  0
    2.8660    0.5000    0.0000 O   0  0  0  0  0  0  0  0  0  0  0  0
    5.4641   -4.0000    0.0000 O   0  5  0  0  0  0  0  0  0  0  0  0
    3.7320   -4.0000    0.0000 O   0  0  0  0  0  0  0  0  0  0  0  0
    4.5981    0.5000    0.0000 N   0  0  0  0  0  0  0  0  0  0  0  0
    5.4641    1.0000    0.0000 N   0  0  0  0  0  0  0  0  0  0  0  0
    2.8660   -0.5000    0.0000 N   0  3  0  0  0  0  0  0  0  0  0  0
    4.5981   -3.5000    0.0000 N   0  3  0  0  0  0  0  0  0  0  0  0
    6.3301    2.5000    0.0000 C   0  0  0  0  0  0  0  0  0  0  0  0
    4.5981   -0.5000    0.0000 C   0  0  0  0  0  0  0  0  0  0  0  0
    7.1962    2.0000    0.0000 C   0  0  0  0  0  0  0  0  0  0  0  0
    5.4641    2.0000    0.0000 C   0  0  0  0  0  0  0  0  0  0  0  0
    3.7320   -1.0000    0.0000 C   0  0  0  0  0  0  0  0  0  0  0  0
    5.4641   -1.0000    0.0000 C   0  0  0  0  0  0  0  0  0  0  0  0
    3.7320   -2.0000    0.0000 C   0  0  0  0  0  0  0  0  0  0  0  0
    4.5981   -2.5000    0.0000 C   0  0  0  0  0  0  0  0  0  0  0  0
    5.4641   -2.0000    0.0000 C   0  0  0  0  0  0  0  0  0  0  0  0
    4.5981    2.5000    0.0000 C   0  0  0  0  0  0  0  0  0  0  0  0
    8.0622    2.5000    0.0000 C   0  0  0  0  0  0  0  0  0  0  0  0
    3.7320    4.0000    0.0000 C   0  0  0  0  0  0  0  0  0  0  0  0
    6.7287    2.9750    0.0000 H   0  0  0  0  0  0  0  0  0  0  0  0
    5.9316    2.9750    0.0000 H   0  0  0  0  0  0  0  0  0  0  0  0
    6.7976    1.5250    0.0000 H   0  0  0  0  0  0  0  0  0  0  0  0
    7.5947    1.5250    0.0000 H   0  0  0  0  0  0  0  0  0  0  0  0
    6.0010   -0.6900    0.0000 H   0  0  0  0  0  0  0  0  0  0  0  0
    3.1951   -2.3100    0.0000 H   0  0  0  0  0  0  0  0  0  0  0  0
    4.0611    0.8100    0.0000 H   0  0  0  0  0  0  0  0  0  0  0  0
    6.0010   -2.3100    0.0000 H   0  0  0  0  0  0  0  0  0  0  0  0
    9.4651    2.3100    0.0000 H   0  0  0  0  0  0  0  0  0  0  0  0
    4.0420    4.5369    0.0000 H   0  0  0  0  0  0  0  0  0  0  0  0
    3.1951    4.3100    0.0000 H   0  0  0  0  0  0  0  0  0  0  0  0
    3.4220    3.4631    0.0000 H   0  0  0  0  0  0  0  0  0  0  0  0
  1 22  1  0  0  0  0
  1 24  1  0  0  0  0
  2 23  1  0  0  0  0
  2 33  1  0  0  0  0
  3 22  2  0  0  0  0
  4 23  2  0  0  0  0
  5 11  1  0  0  0  0
  6 11  2  0  0  0  0
  7 12  1  0  0  0  0
  8 12  2  0  0  0  0
  9 10  1  0  0  0  0
  9 14  1  0  0  0  0
  9 31  1  0  0  0  0
 10 16  2  0  0  0  0
 11 17  1  0  0  0  0
 12 20  1  0  0  0  0
 13 15  1  0  0  0  0
 13 16  1  0  0  0  0
 13 25  1  0  0  0  0
 13 26  1  0  0  0  0
 14 17  2  0  0  0  0
 14 18  1  0  0  0  0
 15 23  1  0  0  0  0
 15 27  1  0  0  0  0
 15 28  1  0  0  0  0
 16 22  1  0  0  0  0
 17 19  1  0  0  0  0
 18 21  2  0  0  0  0
 18 29  1  0  0  0  0
 19 20  2  0  0  0  0
 19 30  1  0  0  0  0
 20 21  1  0  0  0  0
 21 32  1  0  0  0  0
 24 34  1  0  0  0  0
 24 35  1  0  0  0  0
 24 36  1  0  0  0  0
M  CHG  4   5  -1   7  -1  11   1  12   1
M  END
> <PUBCHEM_COMPOUND_CID>
27001638

> <PUBCHEM_COMPOUND_CANONICALIZED>
1

> <PUBCHEM_CACTVS_COMPLEXITY>
538

> <PUBCHEM_CACTVS_HBOND_ACCEPTOR>
10

> <PUBCHEM_CACTVS_HBOND_DONOR>
2

> <PUBCHEM_CACTVS_ROTATABLE_BOND>
7

> <PUBCHEM_CACTVS_SUBSKEYS>
AAADccBzvAAAAAAAAAAAAAAAAAAAAAAAAAAwAAAAAAAAAAABAAAAHgAcCAAACAiBkAIyyIByRgCpASTySwSSBAAgAgA4iAEwdIoIYDKA0dGAYABkmIAIyAeYJggAAACAAAQAACAAAQAACAAAQAAAAAAAAA==

> <PUBCHEM_IUPAC_OPENEYE_NAME>
(4Z)-4-[(2,4-dinitrophenyl)hydrazono]-5-methoxy-5-oxo-pentanoic acid

> <PUBCHEM_IUPAC_CAS_NAME>
(4Z)-4-[(2,4-dinitrophenyl)hydrazinylidene]-5-methoxy-5-oxopentanoic acid

> <PUBCHEM_IUPAC_NAME>
(4Z)-4-[(2,4-dinitrophenyl)hydrazinylidene]-5-methoxy-5-oxopentanoic acid

> <PUBCHEM_IUPAC_SYSTEMATIC_NAME>
(4Z)-4-[(2,4-dinitrophenyl)hydrazinylidene]-5-methoxy-5-oxidanylidene-pentanoic acid

> <PUBCHEM_IUPAC_TRADITIONAL_NAME>
(4Z)-4-[(2,4-dinitrophenyl)hydrazono]-5-keto-5-methoxy-valeric acid

> <PUBCHEM_IUPAC_INCHI>
InChI=1S/C12H12N4O8/c1-24-12(19)9(4-5-11(17)18)14-13-8-3-2-7(15(20)21)6-10(8)16(22)23/h2-3,6,13H,4-5H2,1H3,(H,17,18)/b14-9-

> <PUBCHEM_IUPAC_INCHIKEY>
GSUKTQKYWZCBRR-ZROIWOOFSA-N

> <PUBCHEM_XLOGP3>
3.1

> <PUBCHEM_EXACT_MASS>
340.065513

> <PUBCHEM_MOLECULAR_FORMULA>
C12H12N4O8

> <PUBCHEM_MOLECULAR_WEIGHT>
340.24568

> <PUBCHEM_OPENEYE_CAN_SMILES>
COC(=O)C(=NNC1=C(C=C(C=C1)[N+](=O)[O-])[N+](=O)[O-])CCC(=O)O

> <PUBCHEM_OPENEYE_ISO_SMILES>
COC(=O)/C(=N\NC1=C(C=C(C=C1)[N+](=O)[O-])[N+](=O)[O-])/CCC(=O)O

> <PUBCHEM_CACTVS_TPSA>
180

> <PUBCHEM_MONOISOTOPIC_WEIGHT>
340.065513

> <PUBCHEM_TOTAL_CHARGE>
0

> <PUBCHEM_HEAVY_ATOM_COUNT>
24

> <PUBCHEM_ATOM_DEF_STEREO_COUNT>
0

> <PUBCHEM_ATOM_UDEF_STEREO_COUNT>
0

> <PUBCHEM_BOND_DEF_STEREO_COUNT>
1

> <PUBCHEM_BOND_UDEF_STEREO_COUNT>
0

> <PUBCHEM_ISOTOPIC_ATOM_COUNT>
0

> <PUBCHEM_COMPONENT_COUNT>
1

> <PUBCHEM_CACTVS_TAUTO_COUNT>
3

> <PUBCHEM_COORDINATE_TYPE>
1
5
255

> <PUBCHEM_BONDANNOTATIONS>
14  17  8
14  18  8
17  19  8
18  21  8
19  20  8
20  21  8

$$$$
27003686
  -OEChem-06121304412D

 28 28  0     0  0  0  0  0  0999 V2000
    2.0000   -3.2500    0.0000 Cl  0  0  0  0  0  0  0  0  0  0  0  0
    6.3301    2.2500    0.0000 O   0  0  0  0  0  0  0  0  0  0  0  0
    4.5981    0.2500    0.0000 N   0  3  0  0  0  0  0  0  0  0  0  0
    3.7320   -0.2500    0.0000 C   0  0  0  0  0  0  0  0  0  0  0  0
    5.4641    0.7500    0.0000 C   0  0  0  0  0  0  0  0  0  0  0  0
    3.7320   -1.2500    0.0000 C   0  0  0  0  0  0  0  0  0  0  0  0
    5.4641    1.7500    0.0000 C   0  0  0  0  0  0  0  0  0  0  0  0
    2.8660   -1.7500    0.0000 C   0  0  0  0  0  0  0  0  0  0  0  0
    4.5981   -1.7500    0.0000 C   0  0  0  0  0  0  0  0  0  0  0  0
    2.8660   -2.7500    0.0000 C   0  0  0  0  0  0  0  0  0  0  0  0
    4.5981   -2.7500    0.0000 C   0  0  0  0  0  0  0  0  0  0  0  0
    3.7320   -3.2500    0.0000 C   0  0  0  0  0  0  0  0  0  0  0  0
    6.3301    3.2500    0.0000 C   0  0  0  0  0  0  0  0  0  0  0  0
    4.2881    0.7869    0.0000 H   0  0  0  0  0  0  0  0  0  0  0  0
    4.9081   -0.2869    0.0000 H   0  0  0  0  0  0  0  0  0  0  0  0
    3.5200    0.3326    0.0000 H   0  0  0  0  0  0  0  0  0  0  0  0
    3.1215   -0.3577    0.0000 H   0  0  0  0  0  0  0  0  0  0  0  0
    5.6762    0.1674    0.0000 H   0  0  0  0  0  0  0  0  0  0  0  0
    6.0747    0.8577    0.0000 H   0  0  0  0  0  0  0  0  0  0  0  0
    5.2520    2.3326    0.0000 H   0  0  0  0  0  0  0  0  0  0  0  0
    4.8535    1.6423    0.0000 H   0  0  0  0  0  0  0  0  0  0  0  0
    2.3291   -1.4400    0.0000 H   0  0  0  0  0  0  0  0  0  0  0  0
    5.1350   -1.4400    0.0000 H   0  0  0  0  0  0  0  0  0  0  0  0
    5.1350   -3.0600    0.0000 H   0  0  0  0  0  0  0  0  0  0  0  0
    3.7320   -3.8700    0.0000 H   0  0  0  0  0  0  0  0  0  0  0  0
    6.9501    3.2500    0.0000 H   0  0  0  0  0  0  0  0  0  0  0  0
    6.3301    3.8700    0.0000 H   0  0  0  0  0  0  0  0  0  0  0  0
    5.7101    3.2500    0.0000 H   0  0  0  0  0  0  0  0  0  0  0  0
  1 10  1  0  0  0  0
  2  7  1  0  0  0  0
  2 13  1  0  0  0  0
  3  4  1  0  0  0  0
  3  5  1  0  0  0  0
  3 14  1  0  0  0  0
  3 15  1  0  0  0  0
  4  6  1  0  0  0  0
  4 16  1  0  0  0  0
  4 17  1  0  0  0  0
  5  7  1  0  0  0  0
  5 18  1  0  0  0  0
  5 19  1  0  0  0  0
  6  8  2  0  0  0  0
  6  9  1  0  0  0  0
  7 20  1  0  0  0  0
  7 21  1  0  0  0  0
  8 10  1  0  0  0  0
  8 22  1  0  0  0  0
  9 11  2  0  0  0  0
  9 23  1  0  0  0  0
 10 12  2  0  0  0  0
 11 12  1  0  0  0  0
 11 24  1  0  0  0  0
 12 25  1  0  0  0  0
 13 26  1  0  0  0  0
 13 27  1  0  0  0  0
 13 28  1  0  0  0  0
M  CHG  1   3   1
M  END
> <PUBCHEM_COMPOUND_CID>
27003686

> <PUBCHEM_COMPOUND_CANONICALIZED>
1

> <PUBCHEM_CACTVS_COMPLEXITY>
132

> <PUBCHEM_CACTVS_HBOND_ACCEPTOR>
1

> <PUBCHEM_CACTVS_HBOND_DONOR>
1

> <PUBCHEM_CACTVS_ROTATABLE_BOND>
5

> <PUBCHEM_CACTVS_SUBSKEYS>
AAADccByIAAEAAAAAAAAAAAAAAAAAAAAAAAwAAAAAAAAAAABAAAAHgIQAAAADALhmCYyAILABACAAiBCAACCAAAgBQAIiIAIBogKICKBkxGFIAhgkACYiAcQgAAOAAAAIAAAAAAAAABAAAAAAAAAAAAAAA==

> <PUBCHEM_IUPAC_OPENEYE_NAME>
(3-chlorophenyl)methyl-(2-methoxyethyl)ammonium

> <PUBCHEM_IUPAC_CAS_NAME>
(3-chlorophenyl)methyl-(2-methoxyethyl)ammonium

> <PUBCHEM_IUPAC_NAME>
(3-chlorophenyl)methyl-(2-methoxyethyl)azanium

> <PUBCHEM_IUPAC_SYSTEMATIC_NAME>
(3-chlorophenyl)methyl-(2-methoxyethyl)azanium

> <PUBCHEM_IUPAC_TRADITIONAL_NAME>
(3-chlorobenzyl)-(2-methoxyethyl)ammonium

> <PUBCHEM_IUPAC_INCHI>
InChI=1S/C10H14ClNO/c1-13-6-5-12-8-9-3-2-4-10(11)7-9/h2-4,7,12H,5-6,8H2,1H3/p+1

> <PUBCHEM_IUPAC_INCHIKEY>
WHHMYMYNIYULEI-UHFFFAOYSA-O

> <PUBCHEM_XLOGP3>
2

> <PUBCHEM_EXACT_MASS>
200.084217

> <PUBCHEM_MOLECULAR_FORMULA>
C10H15ClNO+

> <PUBCHEM_MOLECULAR_WEIGHT>
200.6852

> <PUBCHEM_OPENEYE_CAN_SMILES>
COCC[NH2+]CC1=CC(=CC=C1)Cl

> <PUBCHEM_OPENEYE_ISO_SMILES>
COCC[NH2+]CC1=CC(=CC=C1)Cl

> <PUBCHEM_CACTVS_TPSA>
25.8

> <PUBCHEM_MONOISOTOPIC_WEIGHT>
200.084217

> <PUBCHEM_TOTAL_CHARGE>
1

> <PUBCHEM_HEAVY_ATOM_COUNT>
13

> <PUBCHEM_ATOM_DEF_STEREO_COUNT>
0

> <PUBCHEM_ATOM_UDEF_STEREO_COUNT>
0

> <PUBCHEM_BOND_DEF_STEREO_COUNT>
0

> <PUBCHEM_BOND_UDEF_STEREO_COUNT>
0

> <PUBCHEM_ISOTOPIC_ATOM_COUNT>
0

> <PUBCHEM_COMPONENT_COUNT>
1

> <PUBCHEM_CACTVS_TAUTO_COUNT>
1

> <PUBCHEM_COORDINATE_TYPE>
1
5
255

> <PUBCHEM_BONDANNOTATIONS>
10  12  8
11  12  8
6  8  8
6  9  8
8  10  8
9  11  8

$$$$
