48160554
  -OEChem-03221309412D

 30 32  0     0  0  0  0  0  0999 V2000
    4.7320    1.5000    0.0000 O   0  0  0  0  0  0  0  0  0  0  0  0
    3.8660    0.0000    0.0000 N   0  0  0  0  0  0  0  0  0  0  0  0
    8.2764    0.3047    0.0000 N   0  0  0  0  0  0  0  0  0  0  0  0
    3.0000    0.5000    0.0000 C   0  0  0  0  0  0  0  0  0  0  0  0
    2.5000    1.3660    0.0000 C   0  0  0  0  0  0  0  0  0  0  0  0
    2.0000    0.5000    0.0000 C   0  0  0  0  0  0  0  0  0  0  0  0
    4.7320    0.5000    0.0000 C   0  0  0  0  0  0  0  0  0  0  0  0
    3.8660   -1.0000    0.0000 C   0  0  0  0  0  0  0  0  0  0  0  0
    5.5981    0.0000    0.0000 C   0  0  0  0  0  0  0  0  0  0  0  0
    6.4641    0.5000    0.0000 C   0  0  0  0  0  0  0  0  0  0  0  0
    7.3301    0.0000    0.0000 C   0  0  0  0  0  0  0  0  0  0  0  0
    5.5981   -1.0000    0.0000 C   0  0  0  0  0  0  0  0  0  0  0  0
    7.3301   -1.0000    0.0000 C   0  0  0  0  0  0  0  0  0  0  0  0
    6.4641   -1.5000    0.0000 C   0  0  0  0  0  0  0  0  0  0  0  0
    8.2764   -1.3047    0.0000 C   0  0  0  0  0  0  0  0  0  0  0  0
    8.8600   -0.5000    0.0000 C   0  0  0  0  0  0  0  0  0  0  0  0
    2.8395   -0.0989    0.0000 H   0  0  0  0  0  0  0  0  0  0  0  0
    2.9750    1.7646    0.0000 H   0  0  0  0  0  0  0  0  0  0  0  0
    2.0250    1.7646    0.0000 H   0  0  0  0  0  0  0  0  0  0  0  0
    1.4174    0.7121    0.0000 H   0  0  0  0  0  0  0  0  0  0  0  0
    1.8923   -0.1106    0.0000 H   0  0  0  0  0  0  0  0  0  0  0  0
    3.2460   -1.0000    0.0000 H   0  0  0  0  0  0  0  0  0  0  0  0
    3.8660   -1.6200    0.0000 H   0  0  0  0  0  0  0  0  0  0  0  0
    4.4860   -1.0000    0.0000 H   0  0  0  0  0  0  0  0  0  0  0  0
    6.4641    1.1200    0.0000 H   0  0  0  0  0  0  0  0  0  0  0  0
    5.0611   -1.3100    0.0000 H   0  0  0  0  0  0  0  0  0  0  0  0
    6.4641   -2.1200    0.0000 H   0  0  0  0  0  0  0  0  0  0  0  0
    8.4690    0.8941    0.0000 H   0  0  0  0  0  0  0  0  0  0  0  0
    8.4690   -1.8940    0.0000 H   0  0  0  0  0  0  0  0  0  0  0  0
    9.4800   -0.5000    0.0000 H   0  0  0  0  0  0  0  0  0  0  0  0
  1  7  2  0  0  0  0
  2  4  1  0  0  0  0
  2  7  1  0  0  0  0
  2  8  1  0  0  0  0
  3 11  1  0  0  0  0
  3 16  1  0  0  0  0
  3 28  1  0  0  0  0
  4  5  1  0  0  0  0
  4  6  1  0  0  0  0
  4 17  1  0  0  0  0
  5  6  1  0  0  0  0
  5 18  1  0  0  0  0
  5 19  1  0  0  0  0
  6 20  1  0  0  0  0
  6 21  1  0  0  0  0
  7  9  1  0  0  0  0
  8 22  1  0  0  0  0
  8 23  1  0  0  0  0
  8 24  1  0  0  0  0
  9 10  2  0  0  0  0
  9 12  1  0  0  0  0
 10 11  1  0  0  0  0
 10 25  1  0  0  0  0
 11 13  2  0  0  0  0
 12 14  2  0  0  0  0
 12 26  1  0  0  0  0
 13 14  1  0  0  0  0
 13 15  1  0  0  0  0
 14 27  1  0  0  0  0
 15 16  2  0  0  0  0
 15 29  1  0  0  0  0
 16 30  1  0  0  0  0
M  END
> <PUBCHEM_COMPOUND_CID>
48160554

> <PUBCHEM_COMPOUND_CANONICALIZED>
1

> <PUBCHEM_CACTVS_COMPLEXITY>
288

> <PUBCHEM_CACTVS_HBOND_ACCEPTOR>
1

> <PUBCHEM_CACTVS_HBOND_DONOR>
1

> <PUBCHEM_CACTVS_ROTATABLE_BOND>
2

> <PUBCHEM_CACTVS_SUBSKEYS>
AAADccBzIAAAAAAAAAAAAAAAGAAAAWAAAAAwAAAAAAAAAFgB8AAAHgAQAAAADCjBngQ+wPPJkACoAzV3VACCgCA1AiAI2aE4ZNgIIPLAlZGEIQhglgDIyYcciMCOQAAAQAACAACAAACAAAQAAAAAAAAAAA==

> <PUBCHEM_IUPAC_OPENEYE_NAME>
N-cyclopropyl-N-methyl-1H-indole-6-carboxamide

> <PUBCHEM_IUPAC_CAS_NAME>
N-cyclopropyl-N-methyl-1H-indole-6-carboxamide

> <PUBCHEM_IUPAC_NAME>
N-cyclopropyl-N-methyl-1H-indole-6-carboxamide

> <PUBCHEM_IUPAC_SYSTEMATIC_NAME>
N-cyclopropyl-N-methyl-1H-indole-6-carboxamide

> <PUBCHEM_IUPAC_TRADITIONAL_NAME>
N-cyclopropyl-N-methyl-1H-indole-6-carboxamide

> <PUBCHEM_IUPAC_INCHI>
InChI=1S/C13H14N2O/c1-15(11-4-5-11)13(16)10-3-2-9-6-7-14-12(9)8-10/h2-3,6-8,11,14H,4-5H2,1H3

> <PUBCHEM_IUPAC_INCHIKEY>
XHIWOUDKCNKDHG-UHFFFAOYSA-N

> <PUBCHEM_XLOGP3>
2.6

> <PUBCHEM_EXACT_MASS>
214.110613

> <PUBCHEM_MOLECULAR_FORMULA>
C13H14N2O

> <PUBCHEM_MOLECULAR_WEIGHT>
214.26306

> <PUBCHEM_OPENEYE_CAN_SMILES>
CN(C1CC1)C(=O)C2=CC3=C(C=C2)C=CN3

> <PUBCHEM_OPENEYE_ISO_SMILES>
CN(C1CC1)C(=O)C2=CC3=C(C=C2)C=CN3

> <PUBCHEM_CACTVS_TPSA>
36.1

> <PUBCHEM_MONOISOTOPIC_WEIGHT>
214.110613

> <PUBCHEM_TOTAL_CHARGE>
0

> <PUBCHEM_HEAVY_ATOM_COUNT>
16

> <PUBCHEM_ATOM_DEF_STEREO_COUNT>
0

> <PUBCHEM_ATOM_UDEF_STEREO_COUNT>
0

> <PUBCHEM_BOND_DEF_STEREO_COUNT>
0

> <PUBCHEM_BOND_UDEF_STEREO_COUNT>
0

> <PUBCHEM_ISOTOPIC_ATOM_COUNT>
0

> <PUBCHEM_COMPONENT_COUNT>
1

> <PUBCHEM_CACTVS_TAUTO_COUNT>
4

> <PUBCHEM_COORDINATE_TYPE>
1
5
255

> <PUBCHEM_BONDANNOTATIONS>
10  11  8
11  13  8
12  14  8
13  14  8
13  15  8
15  16  8
3  11  8
3  16  8
9  10  8
9  12  8

$$$$
