37187979
  -OEChem-12041211512D

 38 39  0     1  0  0  0  0  0999 V2000
    2.0000   -3.1830    0.0000 Cl  0  0  0  0  0  0  0  0  0  0  0  0
    5.4641   -0.1830    0.0000 O   0  0  0  0  0  0  0  0  0  0  0  0
    5.4641    1.8170    0.0000 N   0  3  3  0  0  0  0  0  0  0  0  0
    3.7321   -0.1830    0.0000 N   0  0  0  0  0  0  0  0  0  0  0  0
    6.3301    2.3170    0.0000 C   0  0  0  0  0  0  0  0  0  0  0  0
    7.3301    2.3170    0.0000 C   0  0  0  0  0  0  0  0  0  0  0  0
    6.8301    3.1830    0.0000 C   0  0  0  0  0  0  0  0  0  0  0  0
    4.9641    2.6830    0.0000 C   0  0  0  0  0  0  0  0  0  0  0  0
    4.5981    1.3170    0.0000 C   0  0  0  0  0  0  0  0  0  0  0  0
    3.9641    2.6830    0.0000 C   0  0  0  0  0  0  0  0  0  0  0  0
    4.5981    0.3170    0.0000 C   0  0  0  0  0  0  0  0  0  0  0  0
    3.7321   -1.1830    0.0000 C   0  0  0  0  0  0  0  0  0  0  0  0
    2.8660   -1.6830    0.0000 C   0  0  0  0  0  0  0  0  0  0  0  0
    4.5981   -1.6830    0.0000 C   0  0  0  0  0  0  0  0  0  0  0  0
    2.8660   -2.6830    0.0000 C   0  0  0  0  0  0  0  0  0  0  0  0
    2.0000   -1.1830    0.0000 C   0  0  0  0  0  0  0  0  0  0  0  0
    4.5981   -2.6830    0.0000 C   0  0  0  0  0  0  0  0  0  0  0  0
    3.7321   -3.1830    0.0000 C   0  0  0  0  0  0  0  0  0  0  0  0
    6.4906    1.7181    0.0000 H   0  0  0  0  0  0  0  0  0  0  0  0
    7.4378    1.7064    0.0000 H   0  0  0  0  0  0  0  0  0  0  0  0
    7.9127    2.5290    0.0000 H   0  0  0  0  0  0  0  0  0  0  0  0
    7.3051    3.5815    0.0000 H   0  0  0  0  0  0  0  0  0  0  0  0
    6.3552    3.5815    0.0000 H   0  0  0  0  0  0  0  0  0  0  0  0
    5.7741    1.2801    0.0000 H   0  0  0  0  0  0  0  0  0  0  0  0
    5.5467    2.8951    0.0000 H   0  0  0  0  0  0  0  0  0  0  0  0
    4.8564    3.2936    0.0000 H   0  0  0  0  0  0  0  0  0  0  0  0
    4.3860    1.8996    0.0000 H   0  0  0  0  0  0  0  0  0  0  0  0
    3.9875    1.2093    0.0000 H   0  0  0  0  0  0  0  0  0  0  0  0
    3.9641    3.3030    0.0000 H   0  0  0  0  0  0  0  0  0  0  0  0
    3.3441    2.6830    0.0000 H   0  0  0  0  0  0  0  0  0  0  0  0
    3.9641    2.0630    0.0000 H   0  0  0  0  0  0  0  0  0  0  0  0
    3.1951    0.1270    0.0000 H   0  0  0  0  0  0  0  0  0  0  0  0
    5.1350   -1.3730    0.0000 H   0  0  0  0  0  0  0  0  0  0  0  0
    2.3100   -0.6461    0.0000 H   0  0  0  0  0  0  0  0  0  0  0  0
    1.4631   -0.8730    0.0000 H   0  0  0  0  0  0  0  0  0  0  0  0
    1.6900   -1.7200    0.0000 H   0  0  0  0  0  0  0  0  0  0  0  0
    5.1350   -2.9930    0.0000 H   0  0  0  0  0  0  0  0  0  0  0  0
    3.7321   -3.8030    0.0000 H   0  0  0  0  0  0  0  0  0  0  0  0
  1 15  1  0  0  0  0
  2 11  2  0  0  0  0
  3  5  1  0  0  0  0
  3  8  1  0  0  0  0
  3  9  1  0  0  0  0
  3 24  1  0  0  0  0
  4 11  1  0  0  0  0
  4 12  1  0  0  0  0
  4 32  1  0  0  0  0
  5  6  1  0  0  0  0
  5  7  1  0  0  0  0
  5 19  1  0  0  0  0
  6  7  1  0  0  0  0
  6 20  1  0  0  0  0
  6 21  1  0  0  0  0
  7 22  1  0  0  0  0
  7 23  1  0  0  0  0
  8 10  1  0  0  0  0
  8 25  1  0  0  0  0
  8 26  1  0  0  0  0
  9 11  1  0  0  0  0
  9 27  1  0  0  0  0
  9 28  1  0  0  0  0
 10 29  1  0  0  0  0
 10 30  1  0  0  0  0
 10 31  1  0  0  0  0
 12 13  2  0  0  0  0
 12 14  1  0  0  0  0
 13 15  1  0  0  0  0
 13 16  1  0  0  0  0
 14 17  2  0  0  0  0
 14 33  1  0  0  0  0
 15 18  2  0  0  0  0
 16 34  1  0  0  0  0
 16 35  1  0  0  0  0
 16 36  1  0  0  0  0
 17 18  1  0  0  0  0
 17 37  1  0  0  0  0
 18 38  1  0  0  0  0
M  CHG  1   3   1
M  END
> <PUBCHEM_COMPOUND_CID>
37187979

> <PUBCHEM_COMPOUND_CANONICALIZED>
1

> <PUBCHEM_CACTVS_COMPLEXITY>
294

> <PUBCHEM_CACTVS_HBOND_ACCEPTOR>
1

> <PUBCHEM_CACTVS_HBOND_DONOR>
2

> <PUBCHEM_CACTVS_ROTATABLE_BOND>
5

> <PUBCHEM_CACTVS_SUBSKEYS>
AAADceBzIAAEAAAAAAAAAAAAGAAAAAAAAAAwAAAAAAAAAAABAAAAHgIQAAAADCrBmCQywIPAAACIAiVSUACCAAAhBwAIiICIZogIYCLBk7GUIAhglADIyAcQgAAOAAAAAAIDAAAAAAAABAYAAAAAAAAAAA==

> <PUBCHEM_IUPAC_OPENEYE_NAME>
[2-(3-chloro-2-methyl-anilino)-2-oxo-ethyl]-cyclopropyl-ethyl-ammonium

> <PUBCHEM_IUPAC_CAS_NAME>
[2-(3-chloro-2-methylanilino)-2-oxoethyl]-cyclopropyl-ethylammonium

> <PUBCHEM_IUPAC_NAME>
[2-(3-chloro-2-methylanilino)-2-oxoethyl]-cyclopropyl-ethylazanium

> <PUBCHEM_IUPAC_SYSTEMATIC_NAME>
[2-[(3-chloranyl-2-methyl-phenyl)amino]-2-oxidanylidene-ethyl]-cyclopropyl-ethyl-azanium

> <PUBCHEM_IUPAC_TRADITIONAL_NAME>
[2-(3-chloro-2-methyl-anilino)-2-keto-ethyl]-cyclopropyl-ethyl-ammonium

> <PUBCHEM_IUPAC_INCHI>
InChI=1S/C14H19ClN2O/c1-3-17(11-7-8-11)9-14(18)16-13-6-4-5-12(15)10(13)2/h4-6,11H,3,7-9H2,1-2H3,(H,16,18)/p+1

> <PUBCHEM_IUPAC_INCHIKEY>
WLXHKOHBCDSWPA-UHFFFAOYSA-O

> <PUBCHEM_XLOGP3>
2.8

> <PUBCHEM_EXACT_MASS>
267.126416

> <PUBCHEM_MOLECULAR_FORMULA>
C14H20ClN2O+

> <PUBCHEM_MOLECULAR_WEIGHT>
267.7744

> <PUBCHEM_OPENEYE_CAN_SMILES>
CC[NH+](CC(=O)NC1=C(C(=CC=C1)Cl)C)C2CC2

> <PUBCHEM_OPENEYE_ISO_SMILES>
CC[NH+](CC(=O)NC1=C(C(=CC=C1)Cl)C)C2CC2

> <PUBCHEM_CACTVS_TPSA>
33.5

> <PUBCHEM_MONOISOTOPIC_WEIGHT>
267.126416

> <PUBCHEM_TOTAL_CHARGE>
1

> <PUBCHEM_HEAVY_ATOM_COUNT>
18

> <PUBCHEM_ATOM_DEF_STEREO_COUNT>
0

> <PUBCHEM_ATOM_UDEF_STEREO_COUNT>
0

> <PUBCHEM_BOND_DEF_STEREO_COUNT>
0

> <PUBCHEM_BOND_UDEF_STEREO_COUNT>
0

> <PUBCHEM_ISOTOPIC_ATOM_COUNT>
0

> <PUBCHEM_COMPONENT_COUNT>
1

> <PUBCHEM_CACTVS_TAUTO_COUNT>
2

> <PUBCHEM_COORDINATE_TYPE>
1
5
255

> <PUBCHEM_BONDANNOTATIONS>
12  13  8
12  14  8
13  15  8
14  17  8
15  18  8
17  18  8

$$$$
