33779391
  -OEChem-05231305192D

 24 25  0     0  0  0  0  0  0999 V2000
    5.4804    2.9223    0.0000 Br  0  0  0  0  0  0  0  0  0  0  0  0
    2.0000   -1.1123    0.0000 S   0  0  0  0  0  0  0  0  0  0  0  0
    3.7320   -1.1123    0.0000 N   0  0  0  0  0  0  0  0  0  0  0  0
    2.8660   -2.6123    0.0000 N   0  0  0  0  0  0  0  0  0  0  0  0
    4.5981    0.3877    0.0000 C   0  0  0  0  0  0  0  0  0  0  0  0
    4.5981    1.3877    0.0000 C   0  0  0  0  0  0  0  0  0  0  0  0
    3.7320   -0.1123    0.0000 C   0  0  0  0  0  0  0  0  0  0  0  0
    5.4920   -0.1470    0.0000 C   0  0  0  0  0  0  0  0  0  0  0  0
    3.7320    1.8877    0.0000 C   0  0  0  0  0  0  0  0  0  0  0  0
    2.8660    0.3877    0.0000 C   0  0  0  0  0  0  0  0  0  0  0  0
    5.4920    1.9224    0.0000 C   0  0  0  0  0  0  0  0  0  0  0  0
    2.8660    1.3877    0.0000 C   0  0  0  0  0  0  0  0  0  0  0  0
    6.3981    0.3669    0.0000 C   0  0  0  0  0  0  0  0  0  0  0  0
    6.3981    1.4085    0.0000 C   0  0  0  0  0  0  0  0  0  0  0  0
    2.8660   -1.6123    0.0000 C   0  0  0  0  0  0  0  0  0  0  0  0
    5.4848   -0.7669    0.0000 H   0  0  0  0  0  0  0  0  0  0  0  0
    3.7320    2.5077    0.0000 H   0  0  0  0  0  0  0  0  0  0  0  0
    2.3291    0.0777    0.0000 H   0  0  0  0  0  0  0  0  0  0  0  0
    2.3291    1.6977    0.0000 H   0  0  0  0  0  0  0  0  0  0  0  0
    6.9338    0.0548    0.0000 H   0  0  0  0  0  0  0  0  0  0  0  0
    6.9338    1.7206    0.0000 H   0  0  0  0  0  0  0  0  0  0  0  0
    4.2690   -1.4223    0.0000 H   0  0  0  0  0  0  0  0  0  0  0  0
    2.3291   -2.9223    0.0000 H   0  0  0  0  0  0  0  0  0  0  0  0
    3.4030   -2.9223    0.0000 H   0  0  0  0  0  0  0  0  0  0  0  0
  1 11  1  0  0  0  0
  2 15  2  0  0  0  0
  3  7  1  0  0  0  0
  3 15  1  0  0  0  0
  3 22  1  0  0  0  0
  4 15  1  0  0  0  0
  4 23  1  0  0  0  0
  4 24  1  0  0  0  0
  5  6  2  0  0  0  0
  5  7  1  0  0  0  0
  5  8  1  0  0  0  0
  6  9  1  0  0  0  0
  6 11  1  0  0  0  0
  7 10  2  0  0  0  0
  8 13  2  0  0  0  0
  8 16  1  0  0  0  0
  9 12  2  0  0  0  0
  9 17  1  0  0  0  0
 10 12  1  0  0  0  0
 10 18  1  0  0  0  0
 11 14  2  0  0  0  0
 12 19  1  0  0  0  0
 13 14  1  0  0  0  0
 13 20  1  0  0  0  0
 14 21  1  0  0  0  0
M  END
> <PUBCHEM_COMPOUND_CID>
33779391

> <PUBCHEM_COMPOUND_CANONICALIZED>
1

> <PUBCHEM_CACTVS_COMPLEXITY>
247

> <PUBCHEM_CACTVS_HBOND_ACCEPTOR>
1

> <PUBCHEM_CACTVS_HBOND_DONOR>
2

> <PUBCHEM_CACTVS_ROTATABLE_BOND>
1

> <PUBCHEM_CACTVS_SUBSKEYS>
AAADccBzAABAEAAAAAAAAAAAAAAAAAAAAAAwYAAAAAAAAADBUAAAHARQAAABrAiBGAAxwMLAAACEAiRCQACCAAAhAg0IiAAAZKiIICLAkZGEIAhgkAJIyjcQgIAOgAAAUAASgAAAAACgACUAAAAAAAAAAA==

> <PUBCHEM_IUPAC_OPENEYE_NAME>
(5-bromo-1-naphthyl)thiourea

> <PUBCHEM_IUPAC_CAS_NAME>
(5-bromo-1-naphthalenyl)thiourea

> <PUBCHEM_IUPAC_NAME>
(5-bromonaphthalen-1-yl)thiourea

> <PUBCHEM_IUPAC_SYSTEMATIC_NAME>
1-(5-bromanylnaphthalen-1-yl)thiourea

> <PUBCHEM_IUPAC_TRADITIONAL_NAME>
(5-bromo-1-naphthyl)thiourea

> <PUBCHEM_IUPAC_INCHI>
InChI=1S/C11H9BrN2S/c12-9-5-1-4-8-7(9)3-2-6-10(8)14-11(13)15/h1-6H,(H3,13,14,15)

> <PUBCHEM_IUPAC_INCHIKEY>
OENQZCDCBAAZGI-UHFFFAOYSA-N

> <PUBCHEM_XLOGP3>
2.4

> <PUBCHEM_EXACT_MASS>
279.966981

> <PUBCHEM_MOLECULAR_FORMULA>
C11H9BrN2S

> <PUBCHEM_MOLECULAR_WEIGHT>
281.17156

> <PUBCHEM_OPENEYE_CAN_SMILES>
C1=CC2=C(C=CC=C2Br)C(=C1)NC(=S)N

> <PUBCHEM_OPENEYE_ISO_SMILES>
C1=CC2=C(C=CC=C2Br)C(=C1)NC(=S)N

> <PUBCHEM_CACTVS_TPSA>
70.1

> <PUBCHEM_MONOISOTOPIC_WEIGHT>
279.966981

> <PUBCHEM_TOTAL_CHARGE>
0

> <PUBCHEM_HEAVY_ATOM_COUNT>
15

> <PUBCHEM_ATOM_DEF_STEREO_COUNT>
0

> <PUBCHEM_ATOM_UDEF_STEREO_COUNT>
0

> <PUBCHEM_BOND_DEF_STEREO_COUNT>
0

> <PUBCHEM_BOND_UDEF_STEREO_COUNT>
0

> <PUBCHEM_ISOTOPIC_ATOM_COUNT>
0

> <PUBCHEM_COMPONENT_COUNT>
1

> <PUBCHEM_CACTVS_TAUTO_COUNT>
3

> <PUBCHEM_COORDINATE_TYPE>
1
5
255

> <PUBCHEM_BONDANNOTATIONS>
10  12  8
11  14  8
13  14  8
5  6  8
5  7  8
5  8  8
6  11  8
6  9  8
7  10  8
8  13  8
9  12  8

$$$$
33779395
  -OEChem-05231305192D

 24 25  0     0  0  0  0  0  0999 V2000
    5.4804    2.9223    0.0000 Cl  0  0  0  0  0  0  0  0  0  0  0  0
    2.0000   -1.1123    0.0000 S   0  0  0  0  0  0  0  0  0  0  0  0
    3.7320   -1.1123    0.0000 N   0  0  0  0  0  0  0  0  0  0  0  0
    2.8660   -2.6123    0.0000 N   0  0  0  0  0  0  0  0  0  0  0  0
    4.5981    0.3877    0.0000 C   0  0  0  0  0  0  0  0  0  0  0  0
    4.5981    1.3877    0.0000 C   0  0  0  0  0  0  0  0  0  0  0  0
    3.7320   -0.1123    0.0000 C   0  0  0  0  0  0  0  0  0  0  0  0
    5.4920   -0.1470    0.0000 C   0  0  0  0  0  0  0  0  0  0  0  0
    3.7320    1.8877    0.0000 C   0  0  0  0  0  0  0  0  0  0  0  0
    2.8660    0.3877    0.0000 C   0  0  0  0  0  0  0  0  0  0  0  0
    5.4920    1.9224    0.0000 C   0  0  0  0  0  0  0  0  0  0  0  0
    2.8660    1.3877    0.0000 C   0  0  0  0  0  0  0  0  0  0  0  0
    6.3981    0.3669    0.0000 C   0  0  0  0  0  0  0  0  0  0  0  0
    6.3981    1.4085    0.0000 C   0  0  0  0  0  0  0  0  0  0  0  0
    2.8660   -1.6123    0.0000 C   0  0  0  0  0  0  0  0  0  0  0  0
    5.4848   -0.7669    0.0000 H   0  0  0  0  0  0  0  0  0  0  0  0
    3.7320    2.5077    0.0000 H   0  0  0  0  0  0  0  0  0  0  0  0
    2.3291    0.0777    0.0000 H   0  0  0  0  0  0  0  0  0  0  0  0
    2.3291    1.6977    0.0000 H   0  0  0  0  0  0  0  0  0  0  0  0
    6.9338    0.0548    0.0000 H   0  0  0  0  0  0  0  0  0  0  0  0
    6.9338    1.7206    0.0000 H   0  0  0  0  0  0  0  0  0  0  0  0
    4.2690   -1.4223    0.0000 H   0  0  0  0  0  0  0  0  0  0  0  0
    2.3291   -2.9223    0.0000 H   0  0  0  0  0  0  0  0  0  0  0  0
    3.4030   -2.9223    0.0000 H   0  0  0  0  0  0  0  0  0  0  0  0
  1 11  1  0  0  0  0
  2 15  2  0  0  0  0
  3  7  1  0  0  0  0
  3 15  1  0  0  0  0
  3 22  1  0  0  0  0
  4 15  1  0  0  0  0
  4 23  1  0  0  0  0
  4 24  1  0  0  0  0
  5  6  2  0  0  0  0
  5  7  1  0  0  0  0
  5  8  1  0  0  0  0
  6  9  1  0  0  0  0
  6 11  1  0  0  0  0
  7 10  2  0  0  0  0
  8 13  2  0  0  0  0
  8 16  1  0  0  0  0
  9 12  2  0  0  0  0
  9 17  1  0  0  0  0
 10 12  1  0  0  0  0
 10 18  1  0  0  0  0
 11 14  2  0  0  0  0
 12 19  1  0  0  0  0
 13 14  1  0  0  0  0
 13 20  1  0  0  0  0
 14 21  1  0  0  0  0
M  END
> <PUBCHEM_COMPOUND_CID>
33779395

> <PUBCHEM_COMPOUND_CANONICALIZED>
1

> <PUBCHEM_CACTVS_COMPLEXITY>
247

> <PUBCHEM_CACTVS_HBOND_ACCEPTOR>
1

> <PUBCHEM_CACTVS_HBOND_DONOR>
2

> <PUBCHEM_CACTVS_ROTATABLE_BOND>
1

> <PUBCHEM_CACTVS_SUBSKEYS>
AAADccBzAABEAAAAAAAAAAAAAAAAAAAAAAAwYAAAAAAAAADBUAAAHAYQAAAADAqBGCAxwMLAAACEAiRCQACCAAAhBwkIiAAAZoiIICLBk5GEIAhgkAJIyCcQgIAOgAAAYAATAAAAAADAACYAAAAAAAAAAA==

> <PUBCHEM_IUPAC_OPENEYE_NAME>
(5-chloro-1-naphthyl)thiourea

> <PUBCHEM_IUPAC_CAS_NAME>
(5-chloro-1-naphthalenyl)thiourea

> <PUBCHEM_IUPAC_NAME>
(5-chloronaphthalen-1-yl)thiourea

> <PUBCHEM_IUPAC_SYSTEMATIC_NAME>
1-(5-chloranylnaphthalen-1-yl)thiourea

> <PUBCHEM_IUPAC_TRADITIONAL_NAME>
(5-chloro-1-naphthyl)thiourea

> <PUBCHEM_IUPAC_INCHI>
InChI=1S/C11H9ClN2S/c12-9-5-1-4-8-7(9)3-2-6-10(8)14-11(13)15/h1-6H,(H3,13,14,15)

> <PUBCHEM_IUPAC_INCHIKEY>
UGALHKHYGWRPJR-UHFFFAOYSA-N

> <PUBCHEM_XLOGP3>
2.3

> <PUBCHEM_EXACT_MASS>
236.017497

> <PUBCHEM_MOLECULAR_FORMULA>
C11H9ClN2S

> <PUBCHEM_MOLECULAR_WEIGHT>
236.72056

> <PUBCHEM_OPENEYE_CAN_SMILES>
C1=CC2=C(C=CC=C2Cl)C(=C1)NC(=S)N

> <PUBCHEM_OPENEYE_ISO_SMILES>
C1=CC2=C(C=CC=C2Cl)C(=C1)NC(=S)N

> <PUBCHEM_CACTVS_TPSA>
70.1

> <PUBCHEM_MONOISOTOPIC_WEIGHT>
236.017497

> <PUBCHEM_TOTAL_CHARGE>
0

> <PUBCHEM_HEAVY_ATOM_COUNT>
15

> <PUBCHEM_ATOM_DEF_STEREO_COUNT>
0

> <PUBCHEM_ATOM_UDEF_STEREO_COUNT>
0

> <PUBCHEM_BOND_DEF_STEREO_COUNT>
0

> <PUBCHEM_BOND_UDEF_STEREO_COUNT>
0

> <PUBCHEM_ISOTOPIC_ATOM_COUNT>
0

> <PUBCHEM_COMPONENT_COUNT>
1

> <PUBCHEM_CACTVS_TAUTO_COUNT>
3

> <PUBCHEM_COORDINATE_TYPE>
1
5
255

> <PUBCHEM_BONDANNOTATIONS>
10  12  8
11  14  8
13  14  8
5  6  8
5  7  8
5  8  8
6  11  8
6  9  8
7  10  8
8  13  8
9  12  8

$$$$
33782745
  -OEChem-05231305192D

 41 43  0     0  0  0  0  0  0999 V2000
    2.1340    0.7327    0.0000 O   0  0  0  0  0  0  0  0  0  0  0  0
    3.8660    0.7327    0.0000 N   0  0  0  0  0  0  0  0  0  0  0  0
    3.0000   -0.7673    0.0000 C   0  0  0  0  0  0  0  0  0  0  0  0
    3.0000   -1.7673    0.0000 C   0  0  0  0  0  0  0  0  0  0  0  0
    3.0000    0.2327    0.0000 C   0  0  0  0  0  0  0  0  0  0  0  0
    2.0000   -0.7673    0.0000 C   0  0  0  0  0  0  0  0  0  0  0  0
    4.0000   -0.7673    0.0000 C   0  0  0  0  0  0  0  0  0  0  0  0
    3.8660    1.7327    0.0000 C   0  0  0  0  0  0  0  0  0  0  0  0
    2.1340   -2.2673    0.0000 C   0  0  0  0  0  0  0  0  0  0  0  0
    3.8660   -2.2673    0.0000 C   0  0  0  0  0  0  0  0  0  0  0  0
    4.7320    2.2327    0.0000 C   0  0  0  0  0  0  0  0  0  0  0  0
    4.7320    3.2327    0.0000 C   0  0  0  0  0  0  0  0  0  0  0  0
    3.0000    2.2327    0.0000 C   0  0  0  0  0  0  0  0  0  0  0  0
    2.1340   -3.2673    0.0000 C   0  0  0  0  0  0  0  0  0  0  0  0
    3.8660   -3.2673    0.0000 C   0  0  0  0  0  0  0  0  0  0  0  0
    5.6260    1.6980    0.0000 C   0  0  0  0  0  0  0  0  0  0  0  0
    3.8660    3.7327    0.0000 C   0  0  0  0  0  0  0  0  0  0  0  0
    3.0000   -3.7673    0.0000 C   0  0  0  0  0  0  0  0  0  0  0  0
    3.0000    3.2327    0.0000 C   0  0  0  0  0  0  0  0  0  0  0  0
    5.6260    3.7673    0.0000 C   0  0  0  0  0  0  0  0  0  0  0  0
    6.5321    2.2118    0.0000 C   0  0  0  0  0  0  0  0  0  0  0  0
    6.5321    3.2535    0.0000 C   0  0  0  0  0  0  0  0  0  0  0  0
    2.0000   -0.1473    0.0000 H   0  0  0  0  0  0  0  0  0  0  0  0
    4.0000   -1.3873    0.0000 H   0  0  0  0  0  0  0  0  0  0  0  0
    4.6200   -0.7673    0.0000 H   0  0  0  0  0  0  0  0  0  0  0  0
    4.0000   -0.1473    0.0000 H   0  0  0  0  0  0  0  0  0  0  0  0
    1.3800   -0.7673    0.0000 H   0  0  0  0  0  0  0  0  0  0  0  0
    2.0000   -1.3873    0.0000 H   0  0  0  0  0  0  0  0  0  0  0  0
    4.4030    0.4227    0.0000 H   0  0  0  0  0  0  0  0  0  0  0  0
    1.5970   -1.9573    0.0000 H   0  0  0  0  0  0  0  0  0  0  0  0
    4.4030   -1.9573    0.0000 H   0  0  0  0  0  0  0  0  0  0  0  0
    2.4631    1.9227    0.0000 H   0  0  0  0  0  0  0  0  0  0  0  0
    1.5970   -3.5773    0.0000 H   0  0  0  0  0  0  0  0  0  0  0  0
    4.4030   -3.5773    0.0000 H   0  0  0  0  0  0  0  0  0  0  0  0
    5.6188    1.0780    0.0000 H   0  0  0  0  0  0  0  0  0  0  0  0
    3.8660    4.3527    0.0000 H   0  0  0  0  0  0  0  0  0  0  0  0
    3.0000   -4.3873    0.0000 H   0  0  0  0  0  0  0  0  0  0  0  0
    2.4631    3.5427    0.0000 H   0  0  0  0  0  0  0  0  0  0  0  0
    5.6188    4.3873    0.0000 H   0  0  0  0  0  0  0  0  0  0  0  0
    7.0678    1.8998    0.0000 H   0  0  0  0  0  0  0  0  0  0  0  0
    7.0678    3.5656    0.0000 H   0  0  0  0  0  0  0  0  0  0  0  0
  1  5  2  0  0  0  0
  2  5  1  0  0  0  0
  2  8  1  0  0  0  0
  2 29  1  0  0  0  0
  3  4  1  0  0  0  0
  3  5  1  0  0  0  0
  3  6  1  0  0  0  0
  3  7  1  0  0  0  0
  4  9  2  0  0  0  0
  4 10  1  0  0  0  0
  6 23  1  0  0  0  0
  6 27  1  0  0  0  0
  6 28  1  0  0  0  0
  7 24  1  0  0  0  0
  7 25  1  0  0  0  0
  7 26  1  0  0  0  0
  8 11  1  0  0  0  0
  8 13  2  0  0  0  0
  9 14  1  0  0  0  0
  9 30  1  0  0  0  0
 10 15  2  0  0  0  0
 10 31  1  0  0  0  0
 11 12  1  0  0  0  0
 11 16  2  0  0  0  0
 12 17  1  0  0  0  0
 12 20  2  0  0  0  0
 13 19  1  0  0  0  0
 13 32  1  0  0  0  0
 14 18  2  0  0  0  0
 14 33  1  0  0  0  0
 15 18  1  0  0  0  0
 15 34  1  0  0  0  0
 16 21  1  0  0  0  0
 16 35  1  0  0  0  0
 17 19  2  0  0  0  0
 17 36  1  0  0  0  0
 18 37  1  0  0  0  0
 19 38  1  0  0  0  0
 20 22  1  0  0  0  0
 20 39  1  0  0  0  0
 21 22  2  0  0  0  0
 21 40  1  0  0  0  0
 22 41  1  0  0  0  0
M  END
> <PUBCHEM_COMPOUND_CID>
33782745

> <PUBCHEM_COMPOUND_CANONICALIZED>
1

> <PUBCHEM_CACTVS_COMPLEXITY>
383

> <PUBCHEM_CACTVS_HBOND_ACCEPTOR>
1

> <PUBCHEM_CACTVS_HBOND_DONOR>
1

> <PUBCHEM_CACTVS_ROTATABLE_BOND>
3

> <PUBCHEM_CACTVS_SUBSKEYS>
AAADceB6IAAAAAAAAAAAAAAAAAAAAAAAAAAwYMAAAAAAAADBVAAAHgAQAAAADgiBmAAywMLAAACIAiVSUACCAAAhAgAIiAEAZIgIIDLAlZGEIAhglADIyAcYiMCPgAAAQAASAAAAAACAACQAAAAAAAAAAA==

> <PUBCHEM_IUPAC_OPENEYE_NAME>
2-methyl-N-(1-naphthyl)-2-phenyl-propanamide

> <PUBCHEM_IUPAC_CAS_NAME>
2-methyl-N-(1-naphthalenyl)-2-phenylpropanamide

> <PUBCHEM_IUPAC_NAME>
2-methyl-N-naphthalen-1-yl-2-phenylpropanamide

> <PUBCHEM_IUPAC_SYSTEMATIC_NAME>
2-methyl-N-naphthalen-1-yl-2-phenyl-propanamide

> <PUBCHEM_IUPAC_TRADITIONAL_NAME>
2-methyl-N-(1-naphthyl)-2-phenyl-propionamide

> <PUBCHEM_IUPAC_INCHI>
InChI=1S/C20H19NO/c1-20(2,16-11-4-3-5-12-16)19(22)21-18-14-8-10-15-9-6-7-13-17(15)18/h3-14H,1-2H3,(H,21,22)

> <PUBCHEM_IUPAC_INCHIKEY>
GVJFJQWFGNCWHZ-UHFFFAOYSA-N

> <PUBCHEM_XLOGP3>
4.2

> <PUBCHEM_EXACT_MASS>
289.146664

> <PUBCHEM_MOLECULAR_FORMULA>
C20H19NO

> <PUBCHEM_MOLECULAR_WEIGHT>
289.37096

> <PUBCHEM_OPENEYE_CAN_SMILES>
CC(C)(C1=CC=CC=C1)C(=O)NC2=CC=CC3=CC=CC=C32

> <PUBCHEM_OPENEYE_ISO_SMILES>
CC(C)(C1=CC=CC=C1)C(=O)NC2=CC=CC3=CC=CC=C32

> <PUBCHEM_CACTVS_TPSA>
29.1

> <PUBCHEM_MONOISOTOPIC_WEIGHT>
289.146664

> <PUBCHEM_TOTAL_CHARGE>
0

> <PUBCHEM_HEAVY_ATOM_COUNT>
22

> <PUBCHEM_ATOM_DEF_STEREO_COUNT>
0

> <PUBCHEM_ATOM_UDEF_STEREO_COUNT>
0

> <PUBCHEM_BOND_DEF_STEREO_COUNT>
0

> <PUBCHEM_BOND_UDEF_STEREO_COUNT>
0

> <PUBCHEM_ISOTOPIC_ATOM_COUNT>
0

> <PUBCHEM_COMPONENT_COUNT>
1

> <PUBCHEM_CACTVS_TAUTO_COUNT>
2

> <PUBCHEM_COORDINATE_TYPE>
1
5
255

> <PUBCHEM_BONDANNOTATIONS>
10  15  8
11  12  8
11  16  8
12  17  8
12  20  8
13  19  8
14  18  8
15  18  8
16  21  8
17  19  8
20  22  8
21  22  8
4  10  8
4  9  8
8  11  8
8  13  8
9  14  8

$$$$
33783026
  -OEChem-05231305192D

 35 36  0     0  0  0  0  0  0999 V2000
    2.0000   -1.7500    0.0000 Cl  0  0  0  0  0  0  0  0  0  0  0  0
    5.4641   -3.7500    0.0000 Cl  0  0  0  0  0  0  0  0  0  0  0  0
    5.4641   -0.7500    0.0000 O   0  0  0  0  0  0  0  0  0  0  0  0
    3.7320   -0.7500    0.0000 N   0  0  0  0  0  0  0  0  0  0  0  0
    4.5981    0.7500    0.0000 C   0  0  0  0  0  0  0  0  0  0  0  0
    4.5981    1.7500    0.0000 C   0  0  0  0  0  0  0  0  0  0  0  0
    5.5981    0.7500    0.0000 C   0  0  0  0  0  0  0  0  0  0  0  0
    3.5981    0.7500    0.0000 C   0  0  0  0  0  0  0  0  0  0  0  0
    4.5981   -0.2500    0.0000 C   0  0  0  0  0  0  0  0  0  0  0  0
    5.4641    2.2500    0.0000 C   0  0  0  0  0  0  0  0  0  0  0  0
    3.7320    2.2500    0.0000 C   0  0  0  0  0  0  0  0  0  0  0  0
    3.7320   -1.7500    0.0000 C   0  0  0  0  0  0  0  0  0  0  0  0
    5.4641    3.2500    0.0000 C   0  0  0  0  0  0  0  0  0  0  0  0
    3.7320    3.2500    0.0000 C   0  0  0  0  0  0  0  0  0  0  0  0
    4.5981    3.7500    0.0000 C   0  0  0  0  0  0  0  0  0  0  0  0
    2.8660   -2.2500    0.0000 C   0  0  0  0  0  0  0  0  0  0  0  0
    4.5981   -2.2500    0.0000 C   0  0  0  0  0  0  0  0  0  0  0  0
    4.5981   -3.2500    0.0000 C   0  0  0  0  0  0  0  0  0  0  0  0
    2.8660   -3.2500    0.0000 C   0  0  0  0  0  0  0  0  0  0  0  0
    3.7320   -3.7500    0.0000 C   0  0  0  0  0  0  0  0  0  0  0  0
    3.5981    1.3700    0.0000 H   0  0  0  0  0  0  0  0  0  0  0  0
    2.9781    0.7500    0.0000 H   0  0  0  0  0  0  0  0  0  0  0  0
    5.5981    0.1300    0.0000 H   0  0  0  0  0  0  0  0  0  0  0  0
    6.2181    0.7500    0.0000 H   0  0  0  0  0  0  0  0  0  0  0  0
    5.5981    1.3700    0.0000 H   0  0  0  0  0  0  0  0  0  0  0  0
    3.5981    0.1300    0.0000 H   0  0  0  0  0  0  0  0  0  0  0  0
    6.0010    1.9400    0.0000 H   0  0  0  0  0  0  0  0  0  0  0  0
    3.1951    1.9400    0.0000 H   0  0  0  0  0  0  0  0  0  0  0  0
    3.1951   -0.4400    0.0000 H   0  0  0  0  0  0  0  0  0  0  0  0
    6.0010    3.5600    0.0000 H   0  0  0  0  0  0  0  0  0  0  0  0
    3.1951    3.5600    0.0000 H   0  0  0  0  0  0  0  0  0  0  0  0
    4.5981    4.3700    0.0000 H   0  0  0  0  0  0  0  0  0  0  0  0
    5.1350   -1.9400    0.0000 H   0  0  0  0  0  0  0  0  0  0  0  0
    2.3291   -3.5600    0.0000 H   0  0  0  0  0  0  0  0  0  0  0  0
    3.7320   -4.3700    0.0000 H   0  0  0  0  0  0  0  0  0  0  0  0
  1 16  1  0  0  0  0
  2 18  1  0  0  0  0
  3  9  2  0  0  0  0
  4  9  1  0  0  0  0
  4 12  1  0  0  0  0
  4 29  1  0  0  0  0
  5  6  1  0  0  0  0
  5  7  1  0  0  0  0
  5  8  1  0  0  0  0
  5  9  1  0  0  0  0
  6 10  2  0  0  0  0
  6 11  1  0  0  0  0
  7 23  1  0  0  0  0
  7 24  1  0  0  0  0
  7 25  1  0  0  0  0
  8 21  1  0  0  0  0
  8 22  1  0  0  0  0
  8 26  1  0  0  0  0
 10 13  1  0  0  0  0
 10 27  1  0  0  0  0
 11 14  2  0  0  0  0
 11 28  1  0  0  0  0
 12 16  2  0  0  0  0
 12 17  1  0  0  0  0
 13 15  2  0  0  0  0
 13 30  1  0  0  0  0
 14 15  1  0  0  0  0
 14 31  1  0  0  0  0
 15 32  1  0  0  0  0
 16 19  1  0  0  0  0
 17 18  2  0  0  0  0
 17 33  1  0  0  0  0
 18 20  1  0  0  0  0
 19 20  2  0  0  0  0
 19 34  1  0  0  0  0
 20 35  1  0  0  0  0
M  END
> <PUBCHEM_COMPOUND_CID>
33783026

> <PUBCHEM_COMPOUND_CANONICALIZED>
1

> <PUBCHEM_CACTVS_COMPLEXITY>
339

> <PUBCHEM_CACTVS_HBOND_ACCEPTOR>
1

> <PUBCHEM_CACTVS_HBOND_DONOR>
1

> <PUBCHEM_CACTVS_ROTATABLE_BOND>
3

> <PUBCHEM_CACTVS_SUBSKEYS>
AAADccB6IAAGAAAAAAAAAAAAAAAAAAAAAAAwYAAAAAAAAAABQAAAHgIQAAAADgqBmCAywILAAACIAiVSUACCAAAhBwAIiAEAZogIIDLBl5HEIAhglADIyAcYiMCPgAAQAAIAABAAACAABAAAIAAAAAAAAA==

> <PUBCHEM_IUPAC_OPENEYE_NAME>
N-(2,5-dichlorophenyl)-2-methyl-2-phenyl-propanamide

> <PUBCHEM_IUPAC_CAS_NAME>
N-(2,5-dichlorophenyl)-2-methyl-2-phenylpropanamide

> <PUBCHEM_IUPAC_NAME>
N-(2,5-dichlorophenyl)-2-methyl-2-phenylpropanamide

> <PUBCHEM_IUPAC_SYSTEMATIC_NAME>
N-[2,5-bis(chloranyl)phenyl]-2-methyl-2-phenyl-propanamide

> <PUBCHEM_IUPAC_TRADITIONAL_NAME>
N-(2,5-dichlorophenyl)-2-methyl-2-phenyl-propionamide

> <PUBCHEM_IUPAC_INCHI>
InChI=1S/C16H15Cl2NO/c1-16(2,11-6-4-3-5-7-11)15(20)19-14-10-12(17)8-9-13(14)18/h3-10H,1-2H3,(H,19,20)

> <PUBCHEM_IUPAC_INCHIKEY>
IZXQAYCEEUYISW-UHFFFAOYSA-N

> <PUBCHEM_XLOGP3>
4.7

> <PUBCHEM_EXACT_MASS>
307.053069

> <PUBCHEM_MOLECULAR_FORMULA>
C16H15Cl2NO

> <PUBCHEM_MOLECULAR_WEIGHT>
308.2024

> <PUBCHEM_OPENEYE_CAN_SMILES>
CC(C)(C1=CC=CC=C1)C(=O)NC2=C(C=CC(=C2)Cl)Cl

> <PUBCHEM_OPENEYE_ISO_SMILES>
CC(C)(C1=CC=CC=C1)C(=O)NC2=C(C=CC(=C2)Cl)Cl

> <PUBCHEM_CACTVS_TPSA>
29.1

> <PUBCHEM_MONOISOTOPIC_WEIGHT>
307.053069

> <PUBCHEM_TOTAL_CHARGE>
0

> <PUBCHEM_HEAVY_ATOM_COUNT>
20

> <PUBCHEM_ATOM_DEF_STEREO_COUNT>
0

> <PUBCHEM_ATOM_UDEF_STEREO_COUNT>
0

> <PUBCHEM_BOND_DEF_STEREO_COUNT>
0

> <PUBCHEM_BOND_UDEF_STEREO_COUNT>
0

> <PUBCHEM_ISOTOPIC_ATOM_COUNT>
0

> <PUBCHEM_COMPONENT_COUNT>
1

> <PUBCHEM_CACTVS_TAUTO_COUNT>
2

> <PUBCHEM_COORDINATE_TYPE>
1
5
255

> <PUBCHEM_BONDANNOTATIONS>
10  13  8
11  14  8
12  16  8
12  17  8
13  15  8
14  15  8
16  19  8
17  18  8
18  20  8
19  20  8
6  10  8
6  11  8

$$$$
33788564
  -OEChem-05231305192D

 20 21  0     0  0  0  0  0  0999 V2000
    2.0000   -0.6970    0.0000 Cl  0  0  0  0  0  0  0  0  0  0  0  0
    7.9939   -0.1970    0.0000 O   0  0  0  0  0  0  0  0  0  0  0  0
    6.4103    0.6077    0.0000 N   0  0  0  0  0  0  0  0  0  0  0  0
    5.4641   -0.6970    0.0000 C   0  0  0  0  0  0  0  0  0  0  0  0
    6.4103   -1.0018    0.0000 C   0  0  0  0  0  0  0  0  0  0  0  0
    5.4641    0.3030    0.0000 C   0  0  0  0  0  0  0  0  0  0  0  0
    4.5981   -1.1970    0.0000 C   0  0  0  0  0  0  0  0  0  0  0  0
    6.9939   -0.1970    0.0000 C   0  0  0  0  0  0  0  0  0  0  0  0
    3.7320   -0.6970    0.0000 C   0  0  0  0  0  0  0  0  0  0  0  0
    4.5981    0.8030    0.0000 C   0  0  0  0  0  0  0  0  0  0  0  0
    3.7320    0.3030    0.0000 C   0  0  0  0  0  0  0  0  0  0  0  0
    2.8660   -1.1970    0.0000 C   0  0  0  0  0  0  0  0  0  0  0  0
    6.1593   -1.5687    0.0000 H   0  0  0  0  0  0  0  0  0  0  0  0
    6.9477   -1.3110    0.0000 H   0  0  0  0  0  0  0  0  0  0  0  0
    4.5981   -1.8170    0.0000 H   0  0  0  0  0  0  0  0  0  0  0  0
    6.6029    1.1970    0.0000 H   0  0  0  0  0  0  0  0  0  0  0  0
    4.5981    1.4230    0.0000 H   0  0  0  0  0  0  0  0  0  0  0  0
    3.1951    0.6130    0.0000 H   0  0  0  0  0  0  0  0  0  0  0  0
    2.4675   -1.6720    0.0000 H   0  0  0  0  0  0  0  0  0  0  0  0
    3.2646   -1.6720    0.0000 H   0  0  0  0  0  0  0  0  0  0  0  0
  1 12  1  0  0  0  0
  2  8  2  0  0  0  0
  3  6  1  0  0  0  0
  3  8  1  0  0  0  0
  3 16  1  0  0  0  0
  4  5  1  0  0  0  0
  4  6  2  0  0  0  0
  4  7  1  0  0  0  0
  5  8  1  0  0  0  0
  5 13  1  0  0  0  0
  5 14  1  0  0  0  0
  6 10  1  0  0  0  0
  7  9  2  0  0  0  0
  7 15  1  0  0  0  0
  9 11  1  0  0  0  0
  9 12  1  0  0  0  0
 10 11  2  0  0  0  0
 10 17  1  0  0  0  0
 11 18  1  0  0  0  0
 12 19  1  0  0  0  0
 12 20  1  0  0  0  0
M  END
> <PUBCHEM_COMPOUND_CID>
33788564

> <PUBCHEM_COMPOUND_CANONICALIZED>
1

> <PUBCHEM_CACTVS_COMPLEXITY>
195

> <PUBCHEM_CACTVS_HBOND_ACCEPTOR>
1

> <PUBCHEM_CACTVS_HBOND_DONOR>
1

> <PUBCHEM_CACTVS_ROTATABLE_BOND>
1

> <PUBCHEM_CACTVS_SUBSKEYS>
AAADccByIAAEAAAAAAAAAAAAAAAAAWAAAAAwAAAAAAAAAFgBAAAAHgIQAAAADAuBmEAwwILAAACIAiVSUACCAAAhAgAIiAEAZogIIDLBlZGEIAhglADIyAcciMCOCAACAAACAAAQAAQAAAQAAAAAAAAAAA==

> <PUBCHEM_IUPAC_OPENEYE_NAME>
5-(chloromethyl)indolin-2-one

> <PUBCHEM_IUPAC_CAS_NAME>
5-(chloromethyl)-1,3-dihydroindol-2-one

> <PUBCHEM_IUPAC_NAME>
5-(chloromethyl)-1,3-dihydroindol-2-one

> <PUBCHEM_IUPAC_SYSTEMATIC_NAME>
5-(chloromethyl)-1,3-dihydroindol-2-one

> <PUBCHEM_IUPAC_TRADITIONAL_NAME>
5-(chloromethyl)oxindole

> <PUBCHEM_IUPAC_INCHI>
InChI=1S/C9H8ClNO/c10-5-6-1-2-8-7(3-6)4-9(12)11-8/h1-3H,4-5H2,(H,11,12)

> <PUBCHEM_IUPAC_INCHIKEY>
BCGSQUVWOGNABS-UHFFFAOYSA-N

> <PUBCHEM_XLOGP3>
1.5

> <PUBCHEM_EXACT_MASS>
181.029442

> <PUBCHEM_MOLECULAR_FORMULA>
C9H8ClNO

> <PUBCHEM_MOLECULAR_WEIGHT>
181.61892

> <PUBCHEM_OPENEYE_CAN_SMILES>
C1C2=C(C=CC(=C2)CCl)NC1=O

> <PUBCHEM_OPENEYE_ISO_SMILES>
C1C2=C(C=CC(=C2)CCl)NC1=O

> <PUBCHEM_CACTVS_TPSA>
29.1

> <PUBCHEM_MONOISOTOPIC_WEIGHT>
181.029442

> <PUBCHEM_TOTAL_CHARGE>
0

> <PUBCHEM_HEAVY_ATOM_COUNT>
12

> <PUBCHEM_ATOM_DEF_STEREO_COUNT>
0

> <PUBCHEM_ATOM_UDEF_STEREO_COUNT>
0

> <PUBCHEM_BOND_DEF_STEREO_COUNT>
0

> <PUBCHEM_BOND_UDEF_STEREO_COUNT>
0

> <PUBCHEM_ISOTOPIC_ATOM_COUNT>
0

> <PUBCHEM_COMPONENT_COUNT>
1

> <PUBCHEM_CACTVS_TAUTO_COUNT>
3

> <PUBCHEM_COORDINATE_TYPE>
1
5
255

> <PUBCHEM_BONDANNOTATIONS>
10  11  8
4  6  8
4  7  8
6  10  8
7  9  8
9  11  8

$$$$
