31708374
  -OEChem-06111304222D

 36 37  0     0  0  0  0  0  0999 V2000
    2.0000    3.4715    0.0000 Cl  0  0  0  0  0  0  0  0  0  0  0  0
    6.3301   -1.0285    0.0000 S   0  0  0  0  0  0  0  0  0  0  0  0
    7.3007   -2.5230    0.0000 S   0  0  0  0  0  0  0  0  0  0  0  0
    8.6856   -3.6444    0.0000 S   0  0  0  0  0  0  0  0  0  0  0  0
    3.7320    5.4715    0.0000 F   0  0  0  0  0  0  0  0  0  0  0  0
    4.7320    4.4715    0.0000 F   0  0  0  0  0  0  0  0  0  0  0  0
    2.7320    4.4715    0.0000 F   0  0  0  0  0  0  0  0  0  0  0  0
    4.5981   -0.0285    0.0000 O   0  0  0  0  0  0  0  0  0  0  0  0
    9.4990   -5.4715    0.0000 O   0  0  0  0  0  0  0  0  0  0  0  0
    5.4641    1.4715    0.0000 N   0  0  0  0  0  0  0  0  0  0  0  0
    8.1097   -1.1217    0.0000 N   0  0  0  0  0  0  0  0  0  0  0  0
    8.7788   -1.8649    0.0000 N   0  0  0  0  0  0  0  0  0  0  0  0
   11.0813   -4.7670    0.0000 N   0  0  0  0  0  0  0  0  0  0  0  0
    4.5981    1.9715    0.0000 C   0  0  0  0  0  0  0  0  0  0  0  0
    3.7320    3.4715    0.0000 C   0  0  0  0  0  0  0  0  0  0  0  0
    4.5981    2.9715    0.0000 C   0  0  0  0  0  0  0  0  0  0  0  0
    3.7320    1.4715    0.0000 C   0  0  0  0  0  0  0  0  0  0  0  0
    2.8660    2.9715    0.0000 C   0  0  0  0  0  0  0  0  0  0  0  0
    2.8660    1.9715    0.0000 C   0  0  0  0  0  0  0  0  0  0  0  0
    3.7320    4.4715    0.0000 C   0  0  0  0  0  0  0  0  0  0  0  0
    5.4641    0.4715    0.0000 C   0  0  0  0  0  0  0  0  0  0  0  0
    6.3301   -0.0285    0.0000 C   0  0  0  0  0  0  0  0  0  0  0  0
    7.1962   -1.5285    0.0000 C   0  0  0  0  0  0  0  0  0  0  0  0
    8.2788   -2.7309    0.0000 C   0  0  0  0  0  0  0  0  0  0  0  0
    9.6801   -3.7490    0.0000 C   0  0  0  0  0  0  0  0  0  0  0  0
   10.0868   -4.6625    0.0000 C   0  0  0  0  0  0  0  0  0  0  0  0
    5.1350    3.2815    0.0000 H   0  0  0  0  0  0  0  0  0  0  0  0
    3.7320    0.8515    0.0000 H   0  0  0  0  0  0  0  0  0  0  0  0
    6.0010    1.7815    0.0000 H   0  0  0  0  0  0  0  0  0  0  0  0
    2.3291    1.6615    0.0000 H   0  0  0  0  0  0  0  0  0  0  0  0
    6.9407   -0.1361    0.0000 H   0  0  0  0  0  0  0  0  0  0  0  0
    6.5422    0.5541    0.0000 H   0  0  0  0  0  0  0  0  0  0  0  0
   10.2817   -3.5990    0.0000 H   0  0  0  0  0  0  0  0  0  0  0  0
    9.6368   -3.1305    0.0000 H   0  0  0  0  0  0  0  0  0  0  0  0
   11.3335   -5.3334    0.0000 H   0  0  0  0  0  0  0  0  0  0  0  0
   11.4458   -4.2655    0.0000 H   0  0  0  0  0  0  0  0  0  0  0  0
  1 18  1  0  0  0  0
  2 22  1  0  0  0  0
  2 23  1  0  0  0  0
  3 23  1  0  0  0  0
  3 24  1  0  0  0  0
  4 24  1  0  0  0  0
  4 25  1  0  0  0  0
  5 20  1  0  0  0  0
  6 20  1  0  0  0  0
  7 20  1  0  0  0  0
  8 21  2  0  0  0  0
  9 26  2  0  0  0  0
 10 14  1  0  0  0  0
 10 21  1  0  0  0  0
 10 29  1  0  0  0  0
 11 12  1  0  0  0  0
 11 23  2  0  0  0  0
 12 24  2  0  0  0  0
 13 26  1  0  0  0  0
 13 35  1  0  0  0  0
 13 36  1  0  0  0  0
 14 16  2  0  0  0  0
 14 17  1  0  0  0  0
 15 16  1  0  0  0  0
 15 18  2  0  0  0  0
 15 20  1  0  0  0  0
 16 27  1  0  0  0  0
 17 19  2  0  0  0  0
 17 28  1  0  0  0  0
 18 19  1  0  0  0  0
 19 30  1  0  0  0  0
 21 22  1  0  0  0  0
 22 31  1  0  0  0  0
 22 32  1  0  0  0  0
 25 26  1  0  0  0  0
 25 33  1  0  0  0  0
 25 34  1  0  0  0  0
M  END
> <PUBCHEM_COMPOUND_CID>
31708374

> <PUBCHEM_COMPOUND_CANONICALIZED>
1

> <PUBCHEM_CACTVS_COMPLEXITY>
518

> <PUBCHEM_CACTVS_HBOND_ACCEPTOR>
10

> <PUBCHEM_CACTVS_HBOND_DONOR>
2

> <PUBCHEM_CACTVS_ROTATABLE_BOND>
7

> <PUBCHEM_CACTVS_SUBSKEYS>
AAADccBzsYBkAAAAAAAAAAAAAAAAAWAAAAAwAAAAAAAAAAABwAAAHwYYAAAADAqF2DCwwILAAAiuAiVSUACSAQBhBxAIiAAAZogIICLBk5GEIAhglADIyAcQgAAOAABAQAABAAAAAICAAAIAAAAAAAAAAA==

> <PUBCHEM_IUPAC_OPENEYE_NAME>
2-[[5-[2-[4-chloro-3-(trifluoromethyl)anilino]-2-oxo-ethyl]sulfanyl-1,3,4-thiadiazol-2-yl]sulfanyl]acetamide

> <PUBCHEM_IUPAC_CAS_NAME>
2-[[5-[[2-[4-chloro-3-(trifluoromethyl)anilino]-2-oxoethyl]thio]-1,3,4-thiadiazol-2-yl]thio]acetamide

> <PUBCHEM_IUPAC_NAME>
2-[[5-[2-[4-chloro-3-(trifluoromethyl)anilino]-2-oxoethyl]sulfanyl-1,3,4-thiadiazol-2-yl]sulfanyl]acetamide

> <PUBCHEM_IUPAC_SYSTEMATIC_NAME>
2-[[5-[2-[[4-chloranyl-3-(trifluoromethyl)phenyl]amino]-2-oxidanylidene-ethyl]sulfanyl-1,3,4-thiadiazol-2-yl]sulfanyl]ethanamide

> <PUBCHEM_IUPAC_TRADITIONAL_NAME>
2-[[5-[[2-[4-chloro-3-(trifluoromethyl)anilino]-2-keto-ethyl]thio]-1,3,4-thiadiazol-2-yl]thio]acetamide

> <PUBCHEM_IUPAC_INCHI>
InChI=1S/C13H10ClF3N4O2S3/c14-8-2-1-6(3-7(8)13(15,16)17)19-10(23)5-25-12-21-20-11(26-12)24-4-9(18)22/h1-3H,4-5H2,(H2,18,22)(H,19,23)

> <PUBCHEM_IUPAC_INCHIKEY>
ZQASDBHTASNVOM-UHFFFAOYSA-N

> <PUBCHEM_XLOGP3>
4.1

> <PUBCHEM_EXACT_MASS>
441.960651

> <PUBCHEM_MOLECULAR_FORMULA>
C13H10ClF3N4O2S3

> <PUBCHEM_MOLECULAR_WEIGHT>
442.88731

> <PUBCHEM_OPENEYE_CAN_SMILES>
C1=CC(=C(C=C1NC(=O)CSC2=NN=C(S2)SCC(=O)N)C(F)(F)F)Cl

> <PUBCHEM_OPENEYE_ISO_SMILES>
C1=CC(=C(C=C1NC(=O)CSC2=NN=C(S2)SCC(=O)N)C(F)(F)F)Cl

> <PUBCHEM_CACTVS_TPSA>
177

> <PUBCHEM_MONOISOTOPIC_WEIGHT>
441.960651

> <PUBCHEM_TOTAL_CHARGE>
0

> <PUBCHEM_HEAVY_ATOM_COUNT>
26

> <PUBCHEM_ATOM_DEF_STEREO_COUNT>
0

> <PUBCHEM_ATOM_UDEF_STEREO_COUNT>
0

> <PUBCHEM_BOND_DEF_STEREO_COUNT>
0

> <PUBCHEM_BOND_UDEF_STEREO_COUNT>
0

> <PUBCHEM_ISOTOPIC_ATOM_COUNT>
0

> <PUBCHEM_COMPONENT_COUNT>
1

> <PUBCHEM_CACTVS_TAUTO_COUNT>
4

> <PUBCHEM_COORDINATE_TYPE>
1
5
255

> <PUBCHEM_BONDANNOTATIONS>
11  12  8
11  23  8
12  24  8
14  16  8
14  17  8
15  16  8
15  18  8
17  19  8
18  19  8
3  23  8
3  24  8

$$$$
