2013891
  -OEChem-11301216502D

 56 59  0     1  0  0  0  0  0999 V2000
    4.3211   -0.0119    0.0000 O   0  0  0  0  0  0  0  0  0  0  0  0
    6.2781    0.4005    0.0000 N   0  3  3  0  0  0  0  0  0  0  0  0
    4.6783   -3.3162    0.0000 N   0  0  0  0  0  0  0  0  0  0  0  0
    6.0530    2.7241    0.0000 C   0  0  1  0  0  0  0  0  0  0  0  0
    6.9432    2.2686    0.0000 C   0  0  1  0  0  0  0  0  0  0  0  0
    5.8178    3.9294    0.0000 C   0  0  0  0  0  0  0  0  0  0  0  0
    5.3879    0.8561    0.0000 C   0  0  0  0  0  0  0  0  0  0  0  0
    9.2055    3.5247    0.0000 C   0  0  0  0  0  0  0  0  0  0  0  0
    8.3975    4.1139    0.0000 C   0  0  0  0  0  0  0  0  0  0  0  0
    8.8948    2.5742    0.0000 C   0  0  0  0  0  0  0  0  0  0  0  0
    5.1628    3.1796    0.0000 C   0  0  0  0  0  0  0  0  0  0  0  0
    5.9674   -0.5500    0.0000 C   0  0  0  0  0  0  0  0  0  0  0  0
    9.8759    4.2667    0.0000 C   0  0  0  0  0  0  0  0  0  0  0  0
   10.1833    3.3151    0.0000 C   0  0  0  0  0  0  0  0  0  0  0  0
    4.9889   -0.7562    0.0000 C   0  0  0  0  0  0  0  0  0  0  0  0
    4.6783   -1.7067    0.0000 C   0  0  0  0  0  0  0  0  0  0  0  0
    5.2619   -2.5114    0.0000 C   0  0  0  0  0  0  0  0  0  0  0  0
    3.7320   -2.0114    0.0000 C   0  0  0  0  0  0  0  0  0  0  0  0
    3.7320   -3.0114    0.0000 C   0  0  0  0  0  0  0  0  0  0  0  0
    6.2619   -2.5114    0.0000 C   0  0  0  0  0  0  0  0  0  0  0  0
    2.8660   -1.5114    0.0000 C   0  0  0  0  0  0  0  0  0  0  0  0
    2.8660   -3.5114    0.0000 C   0  0  0  0  0  0  0  0  0  0  0  0
    4.9889   -4.2667    0.0000 C   0  0  0  0  0  0  0  0  0  0  0  0
    2.0000   -2.0114    0.0000 C   0  0  0  0  0  0  0  0  0  0  0  0
    2.0000   -3.0114    0.0000 C   0  0  0  0  0  0  0  0  0  0  0  0
    7.6999    1.8814    0.0000 H   0  0  0  0  0  0  0  0  0  0  0  0
    6.1606    4.4460    0.0000 H   0  0  0  0  0  0  0  0  0  0  0  0
    5.2097    4.0505    0.0000 H   0  0  0  0  0  0  0  0  0  0  0  0
    7.0861   -0.1886    0.0000 H   0  0  0  0  0  0  0  0  0  0  0  0
    4.8134    1.0893    0.0000 H   0  0  0  0  0  0  0  0  0  0  0  0
    5.1298    0.2923    0.0000 H   0  0  0  0  0  0  0  0  0  0  0  0
    8.8270    4.5610    0.0000 H   0  0  0  0  0  0  0  0  0  0  0  0
    8.0123    4.5997    0.0000 H   0  0  0  0  0  0  0  0  0  0  0  0
    8.8938    1.9542    0.0000 H   0  0  0  0  0  0  0  0  0  0  0  0
    9.5070    2.4761    0.0000 H   0  0  0  0  0  0  0  0  0  0  0  0
    5.4452    3.7316    0.0000 H   0  0  0  0  0  0  0  0  0  0  0  0
    4.6109    3.4620    0.0000 H   0  0  0  0  0  0  0  0  0  0  0  0
    4.8804    2.6277    0.0000 H   0  0  0  0  0  0  0  0  0  0  0  0
    5.9880   -1.1696    0.0000 H   0  0  0  0  0  0  0  0  0  0  0  0
    6.5812   -0.6373    0.0000 H   0  0  0  0  0  0  0  0  0  0  0  0
   10.3359    3.8510    0.0000 H   0  0  0  0  0  0  0  0  0  0  0  0
   10.2916    4.7267    0.0000 H   0  0  0  0  0  0  0  0  0  0  0  0
    9.4159    4.6824    0.0000 H   0  0  0  0  0  0  0  0  0  0  0  0
   10.0533    2.7089    0.0000 H   0  0  0  0  0  0  0  0  0  0  0  0
   10.7895    3.1852    0.0000 H   0  0  0  0  0  0  0  0  0  0  0  0
   10.3132    3.9213    0.0000 H   0  0  0  0  0  0  0  0  0  0  0  0
    6.2619   -3.1314    0.0000 H   0  0  0  0  0  0  0  0  0  0  0  0
    6.8819   -2.5114    0.0000 H   0  0  0  0  0  0  0  0  0  0  0  0
    6.2619   -1.8914    0.0000 H   0  0  0  0  0  0  0  0  0  0  0  0
    2.8660   -0.8914    0.0000 H   0  0  0  0  0  0  0  0  0  0  0  0
    2.8660   -4.1314    0.0000 H   0  0  0  0  0  0  0  0  0  0  0  0
    4.3996   -4.4593    0.0000 H   0  0  0  0  0  0  0  0  0  0  0  0
    5.1815   -4.8560    0.0000 H   0  0  0  0  0  0  0  0  0  0  0  0
    5.5783   -4.0741    0.0000 H   0  0  0  0  0  0  0  0  0  0  0  0
    1.4631   -1.7014    0.0000 H   0  0  0  0  0  0  0  0  0  0  0  0
    1.4631   -3.3214    0.0000 H   0  0  0  0  0  0  0  0  0  0  0  0
  1 15  2  0  0  0  0
  2  5  1  0  0  0  0
  2  7  1  0  0  0  0
  2 12  1  0  0  0  0
  2 29  1  0  0  0  0
  3 17  1  0  0  0  0
  3 19  1  0  0  0  0
  3 23  1  0  0  0  0
  4  6  1  0  0  0  0
  4  7  1  0  0  0  0
  4  9  1  0  0  0  0
  4 11  1  1  0  0  0
  5  6  1  0  0  0  0
  5 10  1  0  0  0  0
  5 26  1  6  0  0  0
  6 27  1  0  0  0  0
  6 28  1  0  0  0  0
  7 30  1  0  0  0  0
  7 31  1  0  0  0  0
  8  9  1  0  0  0  0
  8 10  1  0  0  0  0
  8 13  1  0  0  0  0
  8 14  1  0  0  0  0
  9 32  1  0  0  0  0
  9 33  1  0  0  0  0
 10 34  1  0  0  0  0
 10 35  1  0  0  0  0
 11 36  1  0  0  0  0
 11 37  1  0  0  0  0
 11 38  1  0  0  0  0
 12 15  1  0  0  0  0
 12 39  1  0  0  0  0
 12 40  1  0  0  0  0
 13 41  1  0  0  0  0
 13 42  1  0  0  0  0
 13 43  1  0  0  0  0
 14 44  1  0  0  0  0
 14 45  1  0  0  0  0
 14 46  1  0  0  0  0
 15 16  1  0  0  0  0
 16 17  2  0  0  0  0
 16 18  1  0  0  0  0
 17 20  1  0  0  0  0
 18 19  1  0  0  0  0
 18 21  2  0  0  0  0
 19 22  2  0  0  0  0
 20 47  1  0  0  0  0
 20 48  1  0  0  0  0
 20 49  1  0  0  0  0
 21 24  1  0  0  0  0
 21 50  1  0  0  0  0
 22 25  1  0  0  0  0
 22 51  1  0  0  0  0
 23 52  1  0  0  0  0
 23 53  1  0  0  0  0
 23 54  1  0  0  0  0
 24 25  2  0  0  0  0
 24 55  1  0  0  0  0
 25 56  1  0  0  0  0
M  CHG  1   2   1
M  END
> <PUBCHEM_COMPOUND_CID>
2013891

> <PUBCHEM_COMPOUND_CANONICALIZED>
1

> <PUBCHEM_CACTVS_COMPLEXITY>
544

> <PUBCHEM_CACTVS_HBOND_ACCEPTOR>
1

> <PUBCHEM_CACTVS_HBOND_DONOR>
1

> <PUBCHEM_CACTVS_ROTATABLE_BOND>
3

> <PUBCHEM_CACTVS_SUBSKEYS>
AAADceB7IAAAAAAAAAAAAAAAAAAAAWLAAAAwYAAABYAAAFgB8AAAHgAQAAAADizBngQywPPMEACoA6RyRACCgCAlAiAI2KG4ZNgIIPrAlbGEIYhgkADIyUcciMCPgAAAAAACAAAAAASAAAQAAAAAAAAAAA==

> <PUBCHEM_IUPAC_OPENEYE_NAME>
1-(1,2-dimethylindol-3-yl)-2-[(1R,5S)-3,3,5-trimethyl-7-azoniabicyclo[3.2.1]octan-7-yl]ethanone

> <PUBCHEM_IUPAC_CAS_NAME>
1-(1,2-dimethyl-3-indolyl)-2-[(1R,5S)-3,3,5-trimethyl-7-azoniabicyclo[3.2.1]octan-7-yl]ethanone

> <PUBCHEM_IUPAC_NAME>
1-(1,2-dimethylindol-3-yl)-2-[(1R,5S)-3,3,5-trimethyl-7-azoniabicyclo[3.2.1]octan-7-yl]ethanone

> <PUBCHEM_IUPAC_SYSTEMATIC_NAME>
1-(1,2-dimethylindol-3-yl)-2-[(1R,5S)-3,3,5-trimethyl-7-azoniabicyclo[3.2.1]octan-7-yl]ethanone

> <PUBCHEM_IUPAC_TRADITIONAL_NAME>
1-(1,2-dimethylindol-3-yl)-2-[(1R,5S)-3,3,5-trimethyl-7-azoniabicyclo[3.2.1]octan-7-yl]ethanone

> <PUBCHEM_IUPAC_INCHI>
InChI=1S/C22H30N2O/c1-15-20(17-8-6-7-9-18(17)23(15)5)19(25)12-24-14-22(4)11-16(24)10-21(2,3)13-22/h6-9,16H,10-14H2,1-5H3/p+1/t16-,22-/m1/s1

> <PUBCHEM_IUPAC_INCHIKEY>
DWVYRXCRUOQLHN-OPAMFIHVSA-O

> <PUBCHEM_XLOGP3>
4.6

> <PUBCHEM_EXACT_MASS>
339.243639

> <PUBCHEM_MOLECULAR_FORMULA>
C22H31N2O+

> <PUBCHEM_MOLECULAR_WEIGHT>
339.49434

> <PUBCHEM_OPENEYE_CAN_SMILES>
CC1=C(C2=CC=CC=C2N1C)C(=O)C[NH+]3CC4(CC3CC(C4)(C)C)C

> <PUBCHEM_OPENEYE_ISO_SMILES>
CC1=C(C2=CC=CC=C2N1C)C(=O)C[NH+]3C[C@@]4(C[C@H]3CC(C4)(C)C)C

> <PUBCHEM_CACTVS_TPSA>
26.4

> <PUBCHEM_MONOISOTOPIC_WEIGHT>
339.243639

> <PUBCHEM_TOTAL_CHARGE>
1

> <PUBCHEM_HEAVY_ATOM_COUNT>
25

> <PUBCHEM_ATOM_DEF_STEREO_COUNT>
2

> <PUBCHEM_ATOM_UDEF_STEREO_COUNT>
0

> <PUBCHEM_BOND_DEF_STEREO_COUNT>
0

> <PUBCHEM_BOND_UDEF_STEREO_COUNT>
0

> <PUBCHEM_ISOTOPIC_ATOM_COUNT>
0

> <PUBCHEM_COMPONENT_COUNT>
1

> <PUBCHEM_CACTVS_TAUTO_COUNT>
2

> <PUBCHEM_COORDINATE_TYPE>
1
5
255

> <PUBCHEM_BONDANNOTATIONS>
16  17  8
16  18  8
18  19  8
18  21  8
19  22  8
21  24  8
22  25  8
24  25  8
3  17  8
3  19  8
4  11  5
5  26  6

$$$$
2014276
  -OEChem-11301216502D

 34 35  0     1  0  0  0  0  0999 V2000
    2.0000   -2.4573    0.0000 O   0  0  0  0  0  0  0  0  0  0  0  0
    3.7320   -0.4573    0.0000 N   0  3  0  0  0  0  0  0  0  0  0  0
    4.5981    0.0427    0.0000 C   0  0  0  0  0  0  0  0  0  0  0  0
    2.8660   -0.9573    0.0000 C   0  0  0  0  0  0  0  0  0  0  0  0
    4.5981    1.0427    0.0000 C   0  0  0  0  0  0  0  0  0  0  0  0
    2.8660   -1.9573    0.0000 C   0  0  1  0  0  0  0  0  0  0  0  0
    5.4641    1.5427    0.0000 C   0  0  0  0  0  0  0  0  0  0  0  0
    5.4641    2.5427    0.0000 C   0  0  0  0  0  0  0  0  0  0  0  0
    3.7320    1.5427    0.0000 C   0  0  0  0  0  0  0  0  0  0  0  0
    3.7320   -2.4573    0.0000 C   0  0  0  0  0  0  0  0  0  0  0  0
    6.3580    1.0080    0.0000 C   0  0  0  0  0  0  0  0  0  0  0  0
    4.5981    3.0427    0.0000 C   0  0  0  0  0  0  0  0  0  0  0  0
    3.7320    2.5427    0.0000 C   0  0  0  0  0  0  0  0  0  0  0  0
    6.3580    3.0773    0.0000 C   0  0  0  0  0  0  0  0  0  0  0  0
    7.2641    1.5218    0.0000 C   0  0  0  0  0  0  0  0  0  0  0  0
    7.2641    2.5635    0.0000 C   0  0  0  0  0  0  0  0  0  0  0  0
    4.0420   -0.9943    0.0000 H   0  0  0  0  0  0  0  0  0  0  0  0
    3.4220    0.0796    0.0000 H   0  0  0  0  0  0  0  0  0  0  0  0
    4.8101   -0.5399    0.0000 H   0  0  0  0  0  0  0  0  0  0  0  0
    5.2087    0.1503    0.0000 H   0  0  0  0  0  0  0  0  0  0  0  0
    2.6540   -0.3747    0.0000 H   0  0  0  0  0  0  0  0  0  0  0  0
    2.2554   -1.0650    0.0000 H   0  0  0  0  0  0  0  0  0  0  0  0
    2.3291   -1.6473    0.0000 H   0  0  0  0  0  0  0  0  0  0  0  0
    3.1951    1.2327    0.0000 H   0  0  0  0  0  0  0  0  0  0  0  0
    3.4220   -2.9943    0.0000 H   0  0  0  0  0  0  0  0  0  0  0  0
    4.2690   -2.7673    0.0000 H   0  0  0  0  0  0  0  0  0  0  0  0
    4.0420   -1.9204    0.0000 H   0  0  0  0  0  0  0  0  0  0  0  0
    6.3509    0.3880    0.0000 H   0  0  0  0  0  0  0  0  0  0  0  0
    4.5981    3.6627    0.0000 H   0  0  0  0  0  0  0  0  0  0  0  0
    3.1951    2.8527    0.0000 H   0  0  0  0  0  0  0  0  0  0  0  0
    6.3509    3.6973    0.0000 H   0  0  0  0  0  0  0  0  0  0  0  0
    7.7998    1.2098    0.0000 H   0  0  0  0  0  0  0  0  0  0  0  0
    7.7998    2.8756    0.0000 H   0  0  0  0  0  0  0  0  0  0  0  0
    2.0000   -3.0773    0.0000 H   0  0  0  0  0  0  0  0  0  0  0  0
  6  1  1  1  0  0  0
  1 34  1  0  0  0  0
  2  3  1  0  0  0  0
  2  4  1  0  0  0  0
  2 17  1  0  0  0  0
  2 18  1  0  0  0  0
  3  5  1  0  0  0  0
  3 19  1  0  0  0  0
  3 20  1  0  0  0  0
  4  6  1  0  0  0  0
  4 21  1  0  0  0  0
  4 22  1  0  0  0  0
  5  7  1  0  0  0  0
  5  9  2  0  0  0  0
  6 10  1  0  0  0  0
  6 23  1  0  0  0  0
  7  8  1  0  0  0  0
  7 11  2  0  0  0  0
  8 12  1  0  0  0  0
  8 14  2  0  0  0  0
  9 13  1  0  0  0  0
  9 24  1  0  0  0  0
 10 25  1  0  0  0  0
 10 26  1  0  0  0  0
 10 27  1  0  0  0  0
 11 15  1  0  0  0  0
 11 28  1  0  0  0  0
 12 13  2  0  0  0  0
 12 29  1  0  0  0  0
 13 30  1  0  0  0  0
 14 16  1  0  0  0  0
 14 31  1  0  0  0  0
 15 16  2  0  0  0  0
 15 32  1  0  0  0  0
 16 33  1  0  0  0  0
M  CHG  1   2   1
M  END
> <PUBCHEM_COMPOUND_CID>
2014276

> <PUBCHEM_COMPOUND_CANONICALIZED>
1

> <PUBCHEM_CACTVS_COMPLEXITY>
207

> <PUBCHEM_CACTVS_HBOND_ACCEPTOR>
1

> <PUBCHEM_CACTVS_HBOND_DONOR>
2

> <PUBCHEM_CACTVS_ROTATABLE_BOND>
4

> <PUBCHEM_CACTVS_SUBSKEYS>
AAADceByIAAAAAAAAAAAAAAAAAAAAAAAAAAwYAAAAAAAAADBUAAAHgAQCAAADBThmAYyAMLAAgCAAiBCAACCAAAgAAAIiIAIBIgKMCKAkRGEIAhgkACYiAcQgMAOgAACAAAQAAAAAAQAACAAAAAAAAAAAA==

> <PUBCHEM_IUPAC_OPENEYE_NAME>
[(2R)-2-hydroxypropyl]-(1-naphthylmethyl)ammonium

> <PUBCHEM_IUPAC_CAS_NAME>
[(2R)-2-hydroxypropyl]-(1-naphthalenylmethyl)ammonium

> <PUBCHEM_IUPAC_NAME>
[(2R)-2-hydroxypropyl]-(naphthalen-1-ylmethyl)azanium

> <PUBCHEM_IUPAC_SYSTEMATIC_NAME>
naphthalen-1-ylmethyl-[(2R)-2-oxidanylpropyl]azanium

> <PUBCHEM_IUPAC_TRADITIONAL_NAME>
[(2R)-2-hydroxypropyl]-(1-naphthylmethyl)ammonium

> <PUBCHEM_IUPAC_INCHI>
InChI=1S/C14H17NO/c1-11(16)9-15-10-13-7-4-6-12-5-2-3-8-14(12)13/h2-8,11,15-16H,9-10H2,1H3/p+1/t11-/m1/s1

> <PUBCHEM_IUPAC_INCHIKEY>
DNGJAUHSLOEHST-LLVKDONJSA-O

> <PUBCHEM_XLOGP3>
2.4

> <PUBCHEM_EXACT_MASS>
216.138839

> <PUBCHEM_MOLECULAR_FORMULA>
C14H18NO+

> <PUBCHEM_MOLECULAR_WEIGHT>
216.29882

> <PUBCHEM_OPENEYE_CAN_SMILES>
CC(C[NH2+]CC1=CC=CC2=CC=CC=C21)O

> <PUBCHEM_OPENEYE_ISO_SMILES>
C[C@H](C[NH2+]CC1=CC=CC2=CC=CC=C21)O

> <PUBCHEM_CACTVS_TPSA>
36.8

> <PUBCHEM_MONOISOTOPIC_WEIGHT>
216.138839

> <PUBCHEM_TOTAL_CHARGE>
1

> <PUBCHEM_HEAVY_ATOM_COUNT>
16

> <PUBCHEM_ATOM_DEF_STEREO_COUNT>
1

> <PUBCHEM_ATOM_UDEF_STEREO_COUNT>
0

> <PUBCHEM_BOND_DEF_STEREO_COUNT>
0

> <PUBCHEM_BOND_UDEF_STEREO_COUNT>
0

> <PUBCHEM_ISOTOPIC_ATOM_COUNT>
0

> <PUBCHEM_COMPONENT_COUNT>
1

> <PUBCHEM_CACTVS_TAUTO_COUNT>
1

> <PUBCHEM_COORDINATE_TYPE>
1
5
255

> <PUBCHEM_BONDANNOTATIONS>
6  1  5
11  15  8
12  13  8
14  16  8
15  16  8
5  7  8
5  9  8
7  11  8
7  8  8
8  12  8
8  14  8
9  13  8

$$$$
2020398
  -OEChem-11301216502D

 34 35  0     0  0  0  0  0  0999 V2000
    9.2619   -1.1300    0.0000 O   0  0  0  0  0  0  0  0  0  0  0  0
    6.2619    0.6020    0.0000 N   0  3  0  0  0  0  0  0  0  0  0  0
    4.6783    1.4067    0.0000 N   0  0  0  0  0  0  0  0  0  0  0  0
    4.6783   -0.2027    0.0000 N   0  0  0  0  0  0  0  0  0  0  0  0
    6.7619   -0.2640    0.0000 C   0  0  0  0  0  0  0  0  0  0  0  0
    5.2619    0.6020    0.0000 C   0  0  0  0  0  0  0  0  0  0  0  0
    7.7619   -0.2640    0.0000 C   0  0  0  0  0  0  0  0  0  0  0  0
    3.7321    1.1020    0.0000 C   0  0  0  0  0  0  0  0  0  0  0  0
    3.7321    0.1020    0.0000 C   0  0  0  0  0  0  0  0  0  0  0  0
    8.2619   -1.1300    0.0000 C   0  0  0  0  0  0  0  0  0  0  0  0
    2.8660    1.6020    0.0000 C   0  0  0  0  0  0  0  0  0  0  0  0
    2.8660   -0.3980    0.0000 C   0  0  0  0  0  0  0  0  0  0  0  0
    2.0000    1.1020    0.0000 C   0  0  0  0  0  0  0  0  0  0  0  0
    2.0000    0.1020    0.0000 C   0  0  0  0  0  0  0  0  0  0  0  0
    9.7619   -1.9961    0.0000 C   0  0  0  0  0  0  0  0  0  0  0  0
   10.7619   -1.9961    0.0000 C   0  0  0  0  0  0  0  0  0  0  0  0
    6.8695   -0.8746    0.0000 H   0  0  0  0  0  0  0  0  0  0  0  0
    6.1793   -0.4761    0.0000 H   0  0  0  0  0  0  0  0  0  0  0  0
    8.3445   -0.0520    0.0000 H   0  0  0  0  0  0  0  0  0  0  0  0
    7.6542    0.3466    0.0000 H   0  0  0  0  0  0  0  0  0  0  0  0
    6.5719    1.1389    0.0000 H   0  0  0  0  0  0  0  0  0  0  0  0
    4.8709    1.9961    0.0000 H   0  0  0  0  0  0  0  0  0  0  0  0
    4.8709   -0.7920    0.0000 H   0  0  0  0  0  0  0  0  0  0  0  0
    8.3695   -1.7406    0.0000 H   0  0  0  0  0  0  0  0  0  0  0  0
    7.6793   -1.3421    0.0000 H   0  0  0  0  0  0  0  0  0  0  0  0
    2.8660    2.2220    0.0000 H   0  0  0  0  0  0  0  0  0  0  0  0
    2.8660   -1.0180    0.0000 H   0  0  0  0  0  0  0  0  0  0  0  0
    1.4631    1.4120    0.0000 H   0  0  0  0  0  0  0  0  0  0  0  0
    1.4631   -0.2080    0.0000 H   0  0  0  0  0  0  0  0  0  0  0  0
    9.1793   -2.2081    0.0000 H   0  0  0  0  0  0  0  0  0  0  0  0
    9.8695   -2.6066    0.0000 H   0  0  0  0  0  0  0  0  0  0  0  0
   10.7619   -2.6161    0.0000 H   0  0  0  0  0  0  0  0  0  0  0  0
   10.7619   -1.3761    0.0000 H   0  0  0  0  0  0  0  0  0  0  0  0
   11.3819   -1.9961    0.0000 H   0  0  0  0  0  0  0  0  0  0  0  0
  1 10  1  0  0  0  0
  1 15  1  0  0  0  0
  2  5  1  0  0  0  0
  2  6  2  0  0  0  0
  2 21  1  0  0  0  0
  3  6  1  0  0  0  0
  3  8  1  0  0  0  0
  3 22  1  0  0  0  0
  4  6  1  0  0  0  0
  4  9  1  0  0  0  0
  4 23  1  0  0  0  0
  5  7  1  0  0  0  0
  5 17  1  0  0  0  0
  5 18  1  0  0  0  0
  7 10  1  0  0  0  0
  7 19  1  0  0  0  0
  7 20  1  0  0  0  0
  8  9  1  0  0  0  0
  8 11  2  0  0  0  0
  9 12  2  0  0  0  0
 10 24  1  0  0  0  0
 10 25  1  0  0  0  0
 11 13  1  0  0  0  0
 11 26  1  0  0  0  0
 12 14  1  0  0  0  0
 12 27  1  0  0  0  0
 13 14  2  0  0  0  0
 13 28  1  0  0  0  0
 14 29  1  0  0  0  0
 15 16  1  0  0  0  0
 15 30  1  0  0  0  0
 15 31  1  0  0  0  0
 16 32  1  0  0  0  0
 16 33  1  0  0  0  0
 16 34  1  0  0  0  0
M  CHG  1   2   1
M  END
> <PUBCHEM_COMPOUND_CID>
2020398

> <PUBCHEM_COMPOUND_CANONICALIZED>
1

> <PUBCHEM_CACTVS_COMPLEXITY>
226

> <PUBCHEM_CACTVS_HBOND_ACCEPTOR>
1

> <PUBCHEM_CACTVS_HBOND_DONOR>
3

> <PUBCHEM_CACTVS_ROTATABLE_BOND>
5

> <PUBCHEM_CACTVS_SUBSKEYS>
AAADceBzIAAAAAAAAAAAAAAAAAAAAWAAAAAwAAAAAAAAAFgBAAAAHgAQAAAACAjhkAYzwILABACgACRCZACCAAGhAgAJiIAAdIiIYCLAmZGWIAhqkAJIyCcQAAAAAAAAAAAAACAAAAAAAAAAQAAAAAAAAA==

> <PUBCHEM_IUPAC_OPENEYE_NAME>
1,3-dihydrobenzimidazol-2-ylidene(3-ethoxypropyl)ammonium

> <PUBCHEM_IUPAC_CAS_NAME>
1,3-dihydrobenzimidazol-2-ylidene(3-ethoxypropyl)ammonium

> <PUBCHEM_IUPAC_NAME>
1,3-dihydrobenzimidazol-2-ylidene(3-ethoxypropyl)azanium

> <PUBCHEM_IUPAC_SYSTEMATIC_NAME>
1,3-dihydrobenzimidazol-2-ylidene(3-ethoxypropyl)azanium

> <PUBCHEM_IUPAC_TRADITIONAL_NAME>
1,3-dihydrobenzimidazol-2-ylidene(3-ethoxypropyl)ammonium

> <PUBCHEM_IUPAC_INCHI>
InChI=1S/C12H17N3O/c1-2-16-9-5-8-13-12-14-10-6-3-4-7-11(10)15-12/h3-4,6-7H,2,5,8-9H2,1H3,(H2,13,14,15)/p+1

> <PUBCHEM_IUPAC_INCHIKEY>
LQOSKPDHKWQSDX-UHFFFAOYSA-O

> <PUBCHEM_XLOGP3>
1.8

> <PUBCHEM_EXACT_MASS>
220.144987

> <PUBCHEM_MOLECULAR_FORMULA>
C12H18N3O+

> <PUBCHEM_MOLECULAR_WEIGHT>
220.29082

> <PUBCHEM_OPENEYE_CAN_SMILES>
CCOCCC[NH+]=C1NC2=CC=CC=C2N1

> <PUBCHEM_OPENEYE_ISO_SMILES>
CCOCCC[NH+]=C1NC2=CC=CC=C2N1

> <PUBCHEM_CACTVS_TPSA>
47.3

> <PUBCHEM_MONOISOTOPIC_WEIGHT>
220.144987

> <PUBCHEM_TOTAL_CHARGE>
1

> <PUBCHEM_HEAVY_ATOM_COUNT>
16

> <PUBCHEM_ATOM_DEF_STEREO_COUNT>
0

> <PUBCHEM_ATOM_UDEF_STEREO_COUNT>
0

> <PUBCHEM_BOND_DEF_STEREO_COUNT>
0

> <PUBCHEM_BOND_UDEF_STEREO_COUNT>
0

> <PUBCHEM_ISOTOPIC_ATOM_COUNT>
0

> <PUBCHEM_COMPONENT_COUNT>
1

> <PUBCHEM_CACTVS_TAUTO_COUNT>
2

> <PUBCHEM_COORDINATE_TYPE>
1
5
255

> <PUBCHEM_BONDANNOTATIONS>
11  13  8
12  14  8
13  14  8
3  6  8
3  8  8
4  6  8
4  9  8
8  11  8
8  9  8
9  12  8

$$$$
