46397571
  -OEChem-11301217572D

 22 22  0     1  0  0  0  0  0999 V2000
    5.4641   -2.0600    0.0000 Cl  0  0  0  0  0  0  0  0  0  0  0  0
    4.5981    1.4400    0.0000 O   0  0  0  0  0  0  0  0  0  0  0  0
    3.7320   -0.0600    0.0000 C   0  0  0  0  0  0  0  0  0  0  0  0
    3.7320    0.9400    0.0000 C   0  0  3  0  0  0  0  0  0  0  0  0
    2.8660   -0.5600    0.0000 C   0  0  0  0  0  0  0  0  0  0  0  0
    4.5981   -0.5600    0.0000 C   0  0  0  0  0  0  0  0  0  0  0  0
    2.8660    1.4400    0.0000 C   0  0  0  0  0  0  0  0  0  0  0  0
    2.8660   -1.5600    0.0000 C   0  0  0  0  0  0  0  0  0  0  0  0
    2.0000   -0.0600    0.0000 C   0  0  0  0  0  0  0  0  0  0  0  0
    4.5981   -1.5600    0.0000 C   0  0  0  0  0  0  0  0  0  0  0  0
    3.7320   -2.0600    0.0000 C   0  0  0  0  0  0  0  0  0  0  0  0
    4.2690    0.6300    0.0000 H   0  0  0  0  0  0  0  0  0  0  0  0
    5.1350   -0.2500    0.0000 H   0  0  0  0  0  0  0  0  0  0  0  0
    3.1760    1.9769    0.0000 H   0  0  0  0  0  0  0  0  0  0  0  0
    2.3291    1.7500    0.0000 H   0  0  0  0  0  0  0  0  0  0  0  0
    2.5560    0.9031    0.0000 H   0  0  0  0  0  0  0  0  0  0  0  0
    2.3291   -1.8700    0.0000 H   0  0  0  0  0  0  0  0  0  0  0  0
    2.3100    0.4769    0.0000 H   0  0  0  0  0  0  0  0  0  0  0  0
    1.4631    0.2500    0.0000 H   0  0  0  0  0  0  0  0  0  0  0  0
    1.6900   -0.5969    0.0000 H   0  0  0  0  0  0  0  0  0  0  0  0
    3.7320   -2.6800    0.0000 H   0  0  0  0  0  0  0  0  0  0  0  0
    4.5981    2.0600    0.0000 H   0  0  0  0  0  0  0  0  0  0  0  0
  1 10  1  0  0  0  0
  2  4  1  0  0  0  0
  2 22  1  0  0  0  0
  3  4  1  0  0  0  0
  3  5  2  0  0  0  0
  3  6  1  0  0  0  0
  4  7  1  0  0  0  0
  4 12  1  0  0  0  0
  5  8  1  0  0  0  0
  5  9  1  0  0  0  0
  6 10  2  0  0  0  0
  6 13  1  0  0  0  0
  7 14  1  0  0  0  0
  7 15  1  0  0  0  0
  7 16  1  0  0  0  0
  8 11  2  0  0  0  0
  8 17  1  0  0  0  0
  9 18  1  0  0  0  0
  9 19  1  0  0  0  0
  9 20  1  0  0  0  0
 10 11  1  0  0  0  0
 11 21  1  0  0  0  0
M  END
> <PUBCHEM_COMPOUND_CID>
46397571

> <PUBCHEM_COMPOUND_CANONICALIZED>
1

> <PUBCHEM_CACTVS_COMPLEXITY>
127

> <PUBCHEM_CACTVS_HBOND_ACCEPTOR>
1

> <PUBCHEM_CACTVS_HBOND_DONOR>
1

> <PUBCHEM_CACTVS_ROTATABLE_BOND>
1

> <PUBCHEM_CACTVS_SUBSKEYS>
AAADccBwIAAEAAAAAAAAAAAAAAAAAAAAAAAwAAAAAAAAAAABAAAAGgIACAAADBagmCIyAIAAAgCAAiBCAAACAAAgBQAIiAAACogINiKBExCAcAAkwAEImAeAwKAOhAAAIAAQAAAIAABAACAAAAAAAAAAAA==

> <PUBCHEM_IUPAC_OPENEYE_NAME>
1-(5-chloro-2-methyl-phenyl)ethanol

> <PUBCHEM_IUPAC_CAS_NAME>
1-(5-chloro-2-methylphenyl)ethanol

> <PUBCHEM_IUPAC_NAME>
1-(5-chloro-2-methylphenyl)ethanol

> <PUBCHEM_IUPAC_SYSTEMATIC_NAME>
1-(5-chloranyl-2-methyl-phenyl)ethanol

> <PUBCHEM_IUPAC_TRADITIONAL_NAME>
1-(5-chloro-2-methyl-phenyl)ethanol

> <PUBCHEM_IUPAC_INCHI>
InChI=1S/C9H11ClO/c1-6-3-4-8(10)5-9(6)7(2)11/h3-5,7,11H,1-2H3

> <PUBCHEM_IUPAC_INCHIKEY>
NVDCQPZPKZXHMI-UHFFFAOYSA-N

> <PUBCHEM_XLOGP3>
3

> <PUBCHEM_EXACT_MASS>
170.049843

> <PUBCHEM_MOLECULAR_FORMULA>
C9H11ClO

> <PUBCHEM_MOLECULAR_WEIGHT>
170.63604

> <PUBCHEM_OPENEYE_CAN_SMILES>
CC1=C(C=C(C=C1)Cl)C(C)O

> <PUBCHEM_OPENEYE_ISO_SMILES>
CC1=C(C=C(C=C1)Cl)C(C)O

> <PUBCHEM_CACTVS_TPSA>
20.2

> <PUBCHEM_MONOISOTOPIC_WEIGHT>
170.049843

> <PUBCHEM_TOTAL_CHARGE>
0

> <PUBCHEM_HEAVY_ATOM_COUNT>
11

> <PUBCHEM_ATOM_DEF_STEREO_COUNT>
0

> <PUBCHEM_ATOM_UDEF_STEREO_COUNT>
1

> <PUBCHEM_BOND_DEF_STEREO_COUNT>
0

> <PUBCHEM_BOND_UDEF_STEREO_COUNT>
0

> <PUBCHEM_ISOTOPIC_ATOM_COUNT>
0

> <PUBCHEM_COMPONENT_COUNT>
1

> <PUBCHEM_CACTVS_TAUTO_COUNT>
1

> <PUBCHEM_COORDINATE_TYPE>
1
5
255

> <PUBCHEM_BONDANNOTATIONS>
10  11  8
4  2  3
3  5  8
3  6  8
5  8  8
6  10  8
8  11  8

$$$$
46398532
  -OEChem-11301217572D

 34 36  0     1  0  0  0  0  0999 V2000
    7.2101    3.5788    0.0000 Cl  0  0  0  0  0  0  0  0  0  0  0  0
    4.6783   -2.9895    0.0000 N   0  0  0  0  0  0  0  0  0  0  0  0
    6.6353   -0.9676    0.0000 N   0  0  0  0  0  0  0  0  0  0  0  0
    4.9889   -0.4295    0.0000 C   0  0  0  0  0  0  0  0  0  0  0  0
    5.9674   -0.2233    0.0000 C   0  0  3  0  0  0  0  0  0  0  0  0
    4.6783   -1.3800    0.0000 C   0  0  0  0  0  0  0  0  0  0  0  0
    3.7320   -1.6848    0.0000 C   0  0  0  0  0  0  0  0  0  0  0  0
    3.7320   -2.6848    0.0000 C   0  0  0  0  0  0  0  0  0  0  0  0
    6.2781    0.7272    0.0000 C   0  0  0  0  0  0  0  0  0  0  0  0
    5.2619   -2.1848    0.0000 C   0  0  0  0  0  0  0  0  0  0  0  0
    2.8660   -1.1848    0.0000 C   0  0  0  0  0  0  0  0  0  0  0  0
    2.8660   -3.1848    0.0000 C   0  0  0  0  0  0  0  0  0  0  0  0
    7.2566    0.9335    0.0000 C   0  0  0  0  0  0  0  0  0  0  0  0
    5.6103    1.4715    0.0000 C   0  0  0  0  0  0  0  0  0  0  0  0
    2.0000   -1.6848    0.0000 C   0  0  0  0  0  0  0  0  0  0  0  0
    2.0000   -2.6848    0.0000 C   0  0  0  0  0  0  0  0  0  0  0  0
    7.5673    1.8840    0.0000 C   0  0  0  0  0  0  0  0  0  0  0  0
    5.9209    2.4221    0.0000 C   0  0  0  0  0  0  0  0  0  0  0  0
    6.8994    2.6283    0.0000 C   0  0  0  0  0  0  0  0  0  0  0  0
    4.9684    0.1902    0.0000 H   0  0  0  0  0  0  0  0  0  0  0  0
    4.3751   -0.3421    0.0000 H   0  0  0  0  0  0  0  0  0  0  0  0
    5.7748   -0.8126    0.0000 H   0  0  0  0  0  0  0  0  0  0  0  0
    5.8819   -2.1848    0.0000 H   0  0  0  0  0  0  0  0  0  0  0  0
    4.8709   -3.5788    0.0000 H   0  0  0  0  0  0  0  0  0  0  0  0
    2.8660   -0.5647    0.0000 H   0  0  0  0  0  0  0  0  0  0  0  0
    7.2420   -0.8397    0.0000 H   0  0  0  0  0  0  0  0  0  0  0  0
    6.4427   -1.5569    0.0000 H   0  0  0  0  0  0  0  0  0  0  0  0
    2.8660   -3.8048    0.0000 H   0  0  0  0  0  0  0  0  0  0  0  0
    7.6707    0.4720    0.0000 H   0  0  0  0  0  0  0  0  0  0  0  0
    5.0036    1.3437    0.0000 H   0  0  0  0  0  0  0  0  0  0  0  0
    1.4631   -1.3748    0.0000 H   0  0  0  0  0  0  0  0  0  0  0  0
    1.4631   -2.9947    0.0000 H   0  0  0  0  0  0  0  0  0  0  0  0
    8.1739    2.0118    0.0000 H   0  0  0  0  0  0  0  0  0  0  0  0
    5.5069    2.8835    0.0000 H   0  0  0  0  0  0  0  0  0  0  0  0
  1 19  1  0  0  0  0
  2  8  1  0  0  0  0
  2 10  1  0  0  0  0
  2 24  1  0  0  0  0
  3  5  1  0  0  0  0
  3 26  1  0  0  0  0
  3 27  1  0  0  0  0
  4  5  1  0  0  0  0
  4  6  1  0  0  0  0
  4 20  1  0  0  0  0
  4 21  1  0  0  0  0
  5  9  1  0  0  0  0
  5 22  1  0  0  0  0
  6  7  1  0  0  0  0
  6 10  2  0  0  0  0
  7  8  1  0  0  0  0
  7 11  2  0  0  0  0
  8 12  2  0  0  0  0
  9 13  2  0  0  0  0
  9 14  1  0  0  0  0
 10 23  1  0  0  0  0
 11 15  1  0  0  0  0
 11 25  1  0  0  0  0
 12 16  1  0  0  0  0
 12 28  1  0  0  0  0
 13 17  1  0  0  0  0
 13 29  1  0  0  0  0
 14 18  2  0  0  0  0
 14 30  1  0  0  0  0
 15 16  2  0  0  0  0
 15 31  1  0  0  0  0
 16 32  1  0  0  0  0
 17 19  2  0  0  0  0
 17 33  1  0  0  0  0
 18 19  1  0  0  0  0
 18 34  1  0  0  0  0
M  END
> <PUBCHEM_COMPOUND_CID>
46398532

> <PUBCHEM_COMPOUND_CANONICALIZED>
1

> <PUBCHEM_CACTVS_COMPLEXITY>
289

> <PUBCHEM_CACTVS_HBOND_ACCEPTOR>
1

> <PUBCHEM_CACTVS_HBOND_DONOR>
2

> <PUBCHEM_CACTVS_ROTATABLE_BOND>
3

> <PUBCHEM_CACTVS_SUBSKEYS>
AAADccB7AAAEAAAAAAAAAAAAAAAAAWAAAAAwYAAAAAAAAFgB9AAAHAIQAAAADCrBHiQ8wPLJkACgAzRnRACCgCAxByAI2aA4ZpgIIOLBk5GEIAhgkADIyAcQgMAOhAAAAAACAAAIAAAAAAQAAAAAAAAAAA==

> <PUBCHEM_IUPAC_OPENEYE_NAME>
1-(4-chlorophenyl)-2-(1H-indol-3-yl)ethanamine

> <PUBCHEM_IUPAC_CAS_NAME>
1-(4-chlorophenyl)-2-(1H-indol-3-yl)ethanamine

> <PUBCHEM_IUPAC_NAME>
1-(4-chlorophenyl)-2-(1H-indol-3-yl)ethanamine

> <PUBCHEM_IUPAC_SYSTEMATIC_NAME>
1-(4-chlorophenyl)-2-(1H-indol-3-yl)ethanamine

> <PUBCHEM_IUPAC_TRADITIONAL_NAME>
[1-(4-chlorophenyl)-2-(1H-indol-3-yl)ethyl]amine

> <PUBCHEM_IUPAC_INCHI>
InChI=1S/C16H15ClN2/c17-13-7-5-11(6-8-13)15(18)9-12-10-19-16-4-2-1-3-14(12)16/h1-8,10,15,19H,9,18H2

> <PUBCHEM_IUPAC_INCHIKEY>
HMHFNYRBDPKXES-UHFFFAOYSA-N

> <PUBCHEM_XLOGP3>
3.7

> <PUBCHEM_EXACT_MASS>
270.092376

> <PUBCHEM_MOLECULAR_FORMULA>
C16H15ClN2

> <PUBCHEM_MOLECULAR_WEIGHT>
270.7567

> <PUBCHEM_OPENEYE_CAN_SMILES>
C1=CC=C2C(=C1)C(=CN2)CC(C3=CC=C(C=C3)Cl)N

> <PUBCHEM_OPENEYE_ISO_SMILES>
C1=CC=C2C(=C1)C(=CN2)CC(C3=CC=C(C=C3)Cl)N

> <PUBCHEM_CACTVS_TPSA>
41.8

> <PUBCHEM_MONOISOTOPIC_WEIGHT>
270.092376

> <PUBCHEM_TOTAL_CHARGE>
0

> <PUBCHEM_HEAVY_ATOM_COUNT>
19

> <PUBCHEM_ATOM_DEF_STEREO_COUNT>
0

> <PUBCHEM_ATOM_UDEF_STEREO_COUNT>
1

> <PUBCHEM_BOND_DEF_STEREO_COUNT>
0

> <PUBCHEM_BOND_UDEF_STEREO_COUNT>
0

> <PUBCHEM_ISOTOPIC_ATOM_COUNT>
0

> <PUBCHEM_COMPONENT_COUNT>
1

> <PUBCHEM_CACTVS_TAUTO_COUNT>
1

> <PUBCHEM_COORDINATE_TYPE>
1
5
255

> <PUBCHEM_BONDANNOTATIONS>
11  15  8
12  16  8
13  17  8
14  18  8
15  16  8
17  19  8
18  19  8
2  10  8
2  8  8
5  3  3
6  10  8
6  7  8
7  11  8
7  8  8
8  12  8
9  13  8
9  14  8

$$$$
46398699
  -OEChem-11301217572D

 29 29  0     0  0  0  0  0  0999 V2000
    3.0000    1.9815    0.0000 N   0  0  0  0  0  0  0  0  0  0  0  0
    3.8660    2.4815    0.0000 N   0  3  0  0  0  0  0  0  0  0  0  0
    3.0000   -2.0185    0.0000 C   0  0  0  0  0  0  0  0  0  0  0  0
    3.0000   -1.0185    0.0000 C   0  0  0  0  0  0  0  0  0  0  0  0
    3.0000   -3.0185    0.0000 C   0  0  0  0  0  0  0  0  0  0  0  0
    2.0000   -2.0185    0.0000 C   0  0  0  0  0  0  0  0  0  0  0  0
    4.0000   -2.0185    0.0000 C   0  0  0  0  0  0  0  0  0  0  0  0
    3.8660   -0.5185    0.0000 C   0  0  0  0  0  0  0  0  0  0  0  0
    2.1340   -0.5185    0.0000 C   0  0  0  0  0  0  0  0  0  0  0  0
    3.8660    0.4815    0.0000 C   0  0  0  0  0  0  0  0  0  0  0  0
    2.1340    0.4815    0.0000 C   0  0  0  0  0  0  0  0  0  0  0  0
    3.0000    0.9815    0.0000 C   0  0  0  0  0  0  0  0  0  0  0  0
    2.0000   -1.3985    0.0000 H   0  0  0  0  0  0  0  0  0  0  0  0
    1.3800   -2.0185    0.0000 H   0  0  0  0  0  0  0  0  0  0  0  0
    4.0000   -2.6385    0.0000 H   0  0  0  0  0  0  0  0  0  0  0  0
    4.6200   -2.0185    0.0000 H   0  0  0  0  0  0  0  0  0  0  0  0
    4.0000   -1.3985    0.0000 H   0  0  0  0  0  0  0  0  0  0  0  0
    2.0000   -2.6385    0.0000 H   0  0  0  0  0  0  0  0  0  0  0  0
    2.3800   -3.0185    0.0000 H   0  0  0  0  0  0  0  0  0  0  0  0
    3.0000   -3.6385    0.0000 H   0  0  0  0  0  0  0  0  0  0  0  0
    3.6200   -3.0185    0.0000 H   0  0  0  0  0  0  0  0  0  0  0  0
    4.4030   -0.8285    0.0000 H   0  0  0  0  0  0  0  0  0  0  0  0
    1.5970   -0.8285    0.0000 H   0  0  0  0  0  0  0  0  0  0  0  0
    4.4030    0.7915    0.0000 H   0  0  0  0  0  0  0  0  0  0  0  0
    1.5970    0.7915    0.0000 H   0  0  0  0  0  0  0  0  0  0  0  0
    2.4631    2.2915    0.0000 H   0  0  0  0  0  0  0  0  0  0  0  0
    4.4030    2.7915    0.0000 H   0  0  0  0  0  0  0  0  0  0  0  0
    3.5560    3.0185    0.0000 H   0  0  0  0  0  0  0  0  0  0  0  0
    4.1760    1.9446    0.0000 H   0  0  0  0  0  0  0  0  0  0  0  0
  1  2  1  0  0  0  0
  1 12  1  0  0  0  0
  1 26  1  0  0  0  0
  2 27  1  0  0  0  0
  2 28  1  0  0  0  0
  2 29  1  0  0  0  0
  3  4  1  0  0  0  0
  3  5  1  0  0  0  0
  3  6  1  0  0  0  0
  3  7  1  0  0  0  0
  4  8  2  0  0  0  0
  4  9  1  0  0  0  0
  5 19  1  0  0  0  0
  5 20  1  0  0  0  0
  5 21  1  0  0  0  0
  6 13  1  0  0  0  0
  6 14  1  0  0  0  0
  6 18  1  0  0  0  0
  7 15  1  0  0  0  0
  7 16  1  0  0  0  0
  7 17  1  0  0  0  0
  8 10  1  0  0  0  0
  8 22  1  0  0  0  0
  9 11  2  0  0  0  0
  9 23  1  0  0  0  0
 10 12  2  0  0  0  0
 10 24  1  0  0  0  0
 11 12  1  0  0  0  0
 11 25  1  0  0  0  0
M  CHG  1   2   1
M  END
> <PUBCHEM_COMPOUND_CID>
46398699

> <PUBCHEM_COMPOUND_CANONICALIZED>
1

> <PUBCHEM_CACTVS_COMPLEXITY>
129

> <PUBCHEM_CACTVS_HBOND_ACCEPTOR>
1

> <PUBCHEM_CACTVS_HBOND_DONOR>
2

> <PUBCHEM_CACTVS_ROTATABLE_BOND>
2

> <PUBCHEM_CACTVS_SUBSKEYS>
AAADceBzAAAAAAAAAAAAAAAAAAAAAAAAAAAwAAAAAAAAAAABAAAAHAAYAAAADgiBGAAywIBiAACAAiRCQACCBAAgAgIYqAAAZIgIICKAkZGAIABgkAAIyAcQgMAPiAAAAAAAAAAQAAAAAAAAAAAAAAAAAA==

> <PUBCHEM_IUPAC_OPENEYE_NAME>
(4-tert-butylanilino)ammonium

> <PUBCHEM_IUPAC_CAS_NAME>
(4-tert-butylanilino)ammonium

> <PUBCHEM_IUPAC_NAME>
(4-tert-butylanilino)azanium

> <PUBCHEM_IUPAC_SYSTEMATIC_NAME>
[(4-tert-butylphenyl)amino]azanium

> <PUBCHEM_IUPAC_TRADITIONAL_NAME>
(4-tert-butylanilino)ammonium

> <PUBCHEM_IUPAC_INCHI>
InChI=1S/C10H16N2/c1-10(2,3)8-4-6-9(12-11)7-5-8/h4-7,12H,11H2,1-3H3/p+1

> <PUBCHEM_IUPAC_INCHIKEY>
QPKCNTDHLKSHGT-UHFFFAOYSA-O

> <PUBCHEM_XLOGP3>
2.9

> <PUBCHEM_EXACT_MASS>
165.139174

> <PUBCHEM_MOLECULAR_FORMULA>
C10H17N2+

> <PUBCHEM_MOLECULAR_WEIGHT>
165.25538

> <PUBCHEM_OPENEYE_CAN_SMILES>
CC(C)(C)C1=CC=C(C=C1)N[NH3+]

> <PUBCHEM_OPENEYE_ISO_SMILES>
CC(C)(C)C1=CC=C(C=C1)N[NH3+]

> <PUBCHEM_CACTVS_TPSA>
39.7

> <PUBCHEM_MONOISOTOPIC_WEIGHT>
165.139174

> <PUBCHEM_TOTAL_CHARGE>
1

> <PUBCHEM_HEAVY_ATOM_COUNT>
12

> <PUBCHEM_ATOM_DEF_STEREO_COUNT>
0

> <PUBCHEM_ATOM_UDEF_STEREO_COUNT>
0

> <PUBCHEM_BOND_DEF_STEREO_COUNT>
0

> <PUBCHEM_BOND_UDEF_STEREO_COUNT>
0

> <PUBCHEM_ISOTOPIC_ATOM_COUNT>
0

> <PUBCHEM_COMPONENT_COUNT>
1

> <PUBCHEM_CACTVS_TAUTO_COUNT>
1

> <PUBCHEM_COORDINATE_TYPE>
1
5
255

> <PUBCHEM_BONDANNOTATIONS>
10  12  8
11  12  8
4  8  8
4  9  8
8  10  8
9  11  8

$$$$
46398703
  -OEChem-11301217572D

 22 22  0     0  0  0  0  0  0999 V2000
    2.0000   -1.5600    0.0000 O   0  0  0  0  0  0  0  0  0  0  0  0
    3.7320   -1.5600    0.0000 N   0  0  0  0  0  0  0  0  0  0  0  0
    3.7320    2.4400    0.0000 N   0  3  0  0  0  0  0  0  0  0  0  0
    3.7320   -0.5600    0.0000 C   0  0  0  0  0  0  0  0  0  0  0  0
    3.7320    1.4400    0.0000 C   0  0  0  0  0  0  0  0  0  0  0  0
    4.5981   -0.0600    0.0000 C   0  0  0  0  0  0  0  0  0  0  0  0
    2.8660   -0.0600    0.0000 C   0  0  0  0  0  0  0  0  0  0  0  0
    4.5981    0.9400    0.0000 C   0  0  0  0  0  0  0  0  0  0  0  0
    2.8660    0.9400    0.0000 C   0  0  0  0  0  0  0  0  0  0  0  0
    2.8660   -2.0600    0.0000 C   0  0  0  0  0  0  0  0  0  0  0  0
    2.8660   -3.0600    0.0000 C   0  0  0  0  0  0  0  0  0  0  0  0
    5.1350   -0.3700    0.0000 H   0  0  0  0  0  0  0  0  0  0  0  0
    2.3291   -0.3700    0.0000 H   0  0  0  0  0  0  0  0  0  0  0  0
    5.1350    1.2500    0.0000 H   0  0  0  0  0  0  0  0  0  0  0  0
    2.3291    1.2500    0.0000 H   0  0  0  0  0  0  0  0  0  0  0  0
    4.2690   -1.8700    0.0000 H   0  0  0  0  0  0  0  0  0  0  0  0
    3.7320    3.0600    0.0000 H   0  0  0  0  0  0  0  0  0  0  0  0
    4.3520    2.4400    0.0000 H   0  0  0  0  0  0  0  0  0  0  0  0
    3.1120    2.4400    0.0000 H   0  0  0  0  0  0  0  0  0  0  0  0
    2.2460   -3.0600    0.0000 H   0  0  0  0  0  0  0  0  0  0  0  0
    2.8660   -3.6800    0.0000 H   0  0  0  0  0  0  0  0  0  0  0  0
    3.4860   -3.0600    0.0000 H   0  0  0  0  0  0  0  0  0  0  0  0
  1 10  2  0  0  0  0
  2  4  1  0  0  0  0
  2 10  1  0  0  0  0
  2 16  1  0  0  0  0
  3  5  1  0  0  0  0
  3 17  1  0  0  0  0
  3 18  1  0  0  0  0
  3 19  1  0  0  0  0
  4  6  2  0  0  0  0
  4  7  1  0  0  0  0
  5  8  2  0  0  0  0
  5  9  1  0  0  0  0
  6  8  1  0  0  0  0
  6 12  1  0  0  0  0
  7  9  2  0  0  0  0
  7 13  1  0  0  0  0
  8 14  1  0  0  0  0
  9 15  1  0  0  0  0
 10 11  1  0  0  0  0
 11 20  1  0  0  0  0
 11 21  1  0  0  0  0
 11 22  1  0  0  0  0
M  CHG  1   3   1
M  END
> <PUBCHEM_COMPOUND_CID>
46398703

> <PUBCHEM_COMPOUND_CANONICALIZED>
1

> <PUBCHEM_CACTVS_COMPLEXITY>
139

> <PUBCHEM_CACTVS_HBOND_ACCEPTOR>
1

> <PUBCHEM_CACTVS_HBOND_DONOR>
2

> <PUBCHEM_CACTVS_ROTATABLE_BOND>
1

> <PUBCHEM_CACTVS_SUBSKEYS>
AAADccBzIAAAAAAAAAAAAAAAAAAAAAAAAAAwAAAAAAAAAAABAAAAHgAQAAAACAiBkAAywILAAACIACVSUACCAAAhAgAIiAAAZIgIICLAkZGEIAhglADIyAcQAAAAAACAAAAAAAAAAQAAAAAAAAAAAAAAAA==

> <PUBCHEM_IUPAC_OPENEYE_NAME>
(4-acetamidophenyl)ammonium

> <PUBCHEM_IUPAC_CAS_NAME>
(4-acetamidophenyl)ammonium

> <PUBCHEM_IUPAC_NAME>
(4-acetamidophenyl)azanium

> <PUBCHEM_IUPAC_SYSTEMATIC_NAME>
(4-acetamidophenyl)azanium

> <PUBCHEM_IUPAC_TRADITIONAL_NAME>
(4-acetamidophenyl)ammonium

> <PUBCHEM_IUPAC_INCHI>
InChI=1S/C8H10N2O/c1-6(11)10-8-4-2-7(9)3-5-8/h2-5H,9H2,1H3,(H,10,11)/p+1

> <PUBCHEM_IUPAC_INCHIKEY>
CHMBIJAOCISYEW-UHFFFAOYSA-O

> <PUBCHEM_XLOGP3>
0.1

> <PUBCHEM_EXACT_MASS>
151.087138

> <PUBCHEM_MOLECULAR_FORMULA>
C8H11N2O+

> <PUBCHEM_MOLECULAR_WEIGHT>
151.18574

> <PUBCHEM_OPENEYE_CAN_SMILES>
CC(=O)NC1=CC=C(C=C1)[NH3+]

> <PUBCHEM_OPENEYE_ISO_SMILES>
CC(=O)NC1=CC=C(C=C1)[NH3+]

> <PUBCHEM_CACTVS_TPSA>
56.7

> <PUBCHEM_MONOISOTOPIC_WEIGHT>
151.087138

> <PUBCHEM_TOTAL_CHARGE>
1

> <PUBCHEM_HEAVY_ATOM_COUNT>
11

> <PUBCHEM_ATOM_DEF_STEREO_COUNT>
0

> <PUBCHEM_ATOM_UDEF_STEREO_COUNT>
0

> <PUBCHEM_BOND_DEF_STEREO_COUNT>
0

> <PUBCHEM_BOND_UDEF_STEREO_COUNT>
0

> <PUBCHEM_ISOTOPIC_ATOM_COUNT>
0

> <PUBCHEM_COMPONENT_COUNT>
1

> <PUBCHEM_CACTVS_TAUTO_COUNT>
3

> <PUBCHEM_COORDINATE_TYPE>
1
5
255

> <PUBCHEM_BONDANNOTATIONS>
4  6  8
4  7  8
5  8  8
5  9  8
6  8  8
7  9  8

$$$$
46398706
  -OEChem-11301217572D

 17 17  0     0  0  0  0  0  0999 V2000
    2.0000   -1.5185    0.0000 Cl  0  0  0  0  0  0  0  0  0  0  0  0
    3.7320   -2.5185    0.0000 Cl  0  0  0  0  0  0  0  0  0  0  0  0
    3.7320    1.4815    0.0000 N   0  0  0  0  0  0  0  0  0  0  0  0
    4.5981    1.9815    0.0000 N   0  3  0  0  0  0  0  0  0  0  0  0
    3.7320    0.4815    0.0000 C   0  0  0  0  0  0  0  0  0  0  0  0
    2.8660   -0.0185    0.0000 C   0  0  0  0  0  0  0  0  0  0  0  0
    4.5981   -0.0185    0.0000 C   0  0  0  0  0  0  0  0  0  0  0  0
    2.8660   -1.0185    0.0000 C   0  0  0  0  0  0  0  0  0  0  0  0
    4.5981   -1.0185    0.0000 C   0  0  0  0  0  0  0  0  0  0  0  0
    3.7320   -1.5185    0.0000 C   0  0  0  0  0  0  0  0  0  0  0  0
    2.3291    0.2915    0.0000 H   0  0  0  0  0  0  0  0  0  0  0  0
    5.1350    0.2915    0.0000 H   0  0  0  0  0  0  0  0  0  0  0  0
    3.1951    1.7915    0.0000 H   0  0  0  0  0  0  0  0  0  0  0  0
    5.1350   -1.3285    0.0000 H   0  0  0  0  0  0  0  0  0  0  0  0
    5.1350    2.2915    0.0000 H   0  0  0  0  0  0  0  0  0  0  0  0
    4.2881    2.5185    0.0000 H   0  0  0  0  0  0  0  0  0  0  0  0
    4.9081    1.4446    0.0000 H   0  0  0  0  0  0  0  0  0  0  0  0
  1  8  1  0  0  0  0
  2 10  1  0  0  0  0
  3  4  1  0  0  0  0
  3  5  1  0  0  0  0
  3 13  1  0  0  0  0
  4 15  1  0  0  0  0
  4 16  1  0  0  0  0
  4 17  1  0  0  0  0
  5  6  2  0  0  0  0
  5  7  1  0  0  0  0
  6  8  1  0  0  0  0
  6 11  1  0  0  0  0
  7  9  2  0  0  0  0
  7 12  1  0  0  0  0
  8 10  2  0  0  0  0
  9 10  1  0  0  0  0
  9 14  1  0  0  0  0
M  CHG  1   4   1
M  END
> <PUBCHEM_COMPOUND_CID>
46398706

> <PUBCHEM_COMPOUND_CANONICALIZED>
1

> <PUBCHEM_CACTVS_COMPLEXITY>
110

> <PUBCHEM_CACTVS_HBOND_ACCEPTOR>
1

> <PUBCHEM_CACTVS_HBOND_DONOR>
2

> <PUBCHEM_CACTVS_ROTATABLE_BOND>
1

> <PUBCHEM_CACTVS_SUBSKEYS>
AAADcYBjAAAGAAAAAAAAAAAAAAAAAAAAAAAwAAAAAAAAAAABAAAAHAIYAAAACAqBECAwwIBiAACAACRCQACCBAAgBwIYqkAAZogIICKBk5GAIABgkAAIyAcQAAAAAABAAAIAAAQAAIAABAAACAAAAAAAAA==

> <PUBCHEM_IUPAC_OPENEYE_NAME>
(3,4-dichloroanilino)ammonium

> <PUBCHEM_IUPAC_CAS_NAME>
(3,4-dichloroanilino)ammonium

> <PUBCHEM_IUPAC_NAME>
(3,4-dichloroanilino)azanium

> <PUBCHEM_IUPAC_SYSTEMATIC_NAME>
[(3,4-dichlorophenyl)amino]azanium

> <PUBCHEM_IUPAC_TRADITIONAL_NAME>
(3,4-dichloroanilino)ammonium

> <PUBCHEM_IUPAC_INCHI>
InChI=1S/C6H6Cl2N2/c7-5-2-1-4(10-9)3-6(5)8/h1-3,10H,9H2/p+1

> <PUBCHEM_IUPAC_INCHIKEY>
YMJSQPNVQRHZDW-UHFFFAOYSA-O

> <PUBCHEM_XLOGP3>
2.6

> <PUBCHEM_EXACT_MASS>
176.998629

> <PUBCHEM_MOLECULAR_FORMULA>
C6H7Cl2N2+

> <PUBCHEM_MOLECULAR_WEIGHT>
178.03918

> <PUBCHEM_OPENEYE_CAN_SMILES>
C1=CC(=C(C=C1N[NH3+])Cl)Cl

> <PUBCHEM_OPENEYE_ISO_SMILES>
C1=CC(=C(C=C1N[NH3+])Cl)Cl

> <PUBCHEM_CACTVS_TPSA>
39.7

> <PUBCHEM_MONOISOTOPIC_WEIGHT>
176.998629

> <PUBCHEM_TOTAL_CHARGE>
1

> <PUBCHEM_HEAVY_ATOM_COUNT>
10

> <PUBCHEM_ATOM_DEF_STEREO_COUNT>
0

> <PUBCHEM_ATOM_UDEF_STEREO_COUNT>
0

> <PUBCHEM_BOND_DEF_STEREO_COUNT>
0

> <PUBCHEM_BOND_UDEF_STEREO_COUNT>
0

> <PUBCHEM_ISOTOPIC_ATOM_COUNT>
0

> <PUBCHEM_COMPONENT_COUNT>
1

> <PUBCHEM_CACTVS_TAUTO_COUNT>
1

> <PUBCHEM_COORDINATE_TYPE>
1
5
255

> <PUBCHEM_BONDANNOTATIONS>
5  6  8
5  7  8
6  8  8
7  9  8
8  10  8
9  10  8

$$$$
46398707
  -OEChem-11301217572D

 23 23  0     0  0  0  0  0  0999 V2000
    3.7320    0.9815    0.0000 N   0  0  0  0  0  0  0  0  0  0  0  0
    4.5981    1.4815    0.0000 N   0  3  0  0  0  0  0  0  0  0  0  0
    3.7320   -0.0185    0.0000 C   0  0  0  0  0  0  0  0  0  0  0  0
    2.8660   -0.5185    0.0000 C   0  0  0  0  0  0  0  0  0  0  0  0
    4.5981   -1.5185    0.0000 C   0  0  0  0  0  0  0  0  0  0  0  0
    4.5981   -0.5185    0.0000 C   0  0  0  0  0  0  0  0  0  0  0  0
    2.8660   -1.5185    0.0000 C   0  0  0  0  0  0  0  0  0  0  0  0
    3.7320   -2.0185    0.0000 C   0  0  0  0  0  0  0  0  0  0  0  0
    2.0000   -0.0185    0.0000 C   0  0  0  0  0  0  0  0  0  0  0  0
    5.4641   -2.0185    0.0000 C   0  0  0  0  0  0  0  0  0  0  0  0
    5.1350   -0.2085    0.0000 H   0  0  0  0  0  0  0  0  0  0  0  0
    2.3291   -1.8285    0.0000 H   0  0  0  0  0  0  0  0  0  0  0  0
    3.7320   -2.6385    0.0000 H   0  0  0  0  0  0  0  0  0  0  0  0
    3.1951    1.2915    0.0000 H   0  0  0  0  0  0  0  0  0  0  0  0
    2.3100    0.5185    0.0000 H   0  0  0  0  0  0  0  0  0  0  0  0
    1.4631    0.2915    0.0000 H   0  0  0  0  0  0  0  0  0  0  0  0
    1.6900   -0.5554    0.0000 H   0  0  0  0  0  0  0  0  0  0  0  0
    5.1541   -2.5554    0.0000 H   0  0  0  0  0  0  0  0  0  0  0  0
    6.0010   -2.3285    0.0000 H   0  0  0  0  0  0  0  0  0  0  0  0
    5.7741   -1.4815    0.0000 H   0  0  0  0  0  0  0  0  0  0  0  0
    5.1350    1.7915    0.0000 H   0  0  0  0  0  0  0  0  0  0  0  0
    4.2881    2.0185    0.0000 H   0  0  0  0  0  0  0  0  0  0  0  0
    4.9081    0.9446    0.0000 H   0  0  0  0  0  0  0  0  0  0  0  0
  1  2  1  0  0  0  0
  1  3  1  0  0  0  0
  1 14  1  0  0  0  0
  2 21  1  0  0  0  0
  2 22  1  0  0  0  0
  2 23  1  0  0  0  0
  3  4  2  0  0  0  0
  3  6  1  0  0  0  0
  4  7  1  0  0  0  0
  4  9  1  0  0  0  0
  5  6  2  0  0  0  0
  5  8  1  0  0  0  0
  5 10  1  0  0  0  0
  6 11  1  0  0  0  0
  7  8  2  0  0  0  0
  7 12  1  0  0  0  0
  8 13  1  0  0  0  0
  9 15  1  0  0  0  0
  9 16  1  0  0  0  0
  9 17  1  0  0  0  0
 10 18  1  0  0  0  0
 10 19  1  0  0  0  0
 10 20  1  0  0  0  0
M  CHG  1   2   1
M  END
> <PUBCHEM_COMPOUND_CID>
46398707

> <PUBCHEM_COMPOUND_CANONICALIZED>
1

> <PUBCHEM_CACTVS_COMPLEXITY>
103

> <PUBCHEM_CACTVS_HBOND_ACCEPTOR>
1

> <PUBCHEM_CACTVS_HBOND_DONOR>
2

> <PUBCHEM_CACTVS_ROTATABLE_BOND>
1

> <PUBCHEM_CACTVS_SUBSKEYS>
AAADccBzAAAAAAAAAAAAAAAAAAAAAAAAAAAwAAAAAAAAAAABAAAAHAAYAAAADAiBGAAywIBiAACAAiRCQACCBAAgAgIYqAAAZIgIICKAkZGAIABgkAAIyAcQgAAOQAAAQAACAACAAACAAAQAAAAAAAAAAA==

> <PUBCHEM_IUPAC_OPENEYE_NAME>
(2,5-dimethylanilino)ammonium

> <PUBCHEM_IUPAC_CAS_NAME>
(2,5-dimethylanilino)ammonium

> <PUBCHEM_IUPAC_NAME>
(2,5-dimethylanilino)azanium

> <PUBCHEM_IUPAC_SYSTEMATIC_NAME>
[(2,5-dimethylphenyl)amino]azanium

> <PUBCHEM_IUPAC_TRADITIONAL_NAME>
(2,5-dimethylanilino)ammonium

> <PUBCHEM_IUPAC_INCHI>
InChI=1S/C8H12N2/c1-6-3-4-7(2)8(5-6)10-9/h3-5,10H,9H2,1-2H3/p+1

> <PUBCHEM_IUPAC_INCHIKEY>
XTXWNXNOTJBIIN-UHFFFAOYSA-O

> <PUBCHEM_XLOGP3>
1.5

> <PUBCHEM_EXACT_MASS>
137.107873

> <PUBCHEM_MOLECULAR_FORMULA>
C8H13N2+

> <PUBCHEM_MOLECULAR_WEIGHT>
137.20222

> <PUBCHEM_OPENEYE_CAN_SMILES>
CC1=CC(=C(C=C1)C)N[NH3+]

> <PUBCHEM_OPENEYE_ISO_SMILES>
CC1=CC(=C(C=C1)C)N[NH3+]

> <PUBCHEM_CACTVS_TPSA>
39.7

> <PUBCHEM_MONOISOTOPIC_WEIGHT>
137.107873

> <PUBCHEM_TOTAL_CHARGE>
1

> <PUBCHEM_HEAVY_ATOM_COUNT>
10

> <PUBCHEM_ATOM_DEF_STEREO_COUNT>
0

> <PUBCHEM_ATOM_UDEF_STEREO_COUNT>
0

> <PUBCHEM_BOND_DEF_STEREO_COUNT>
0

> <PUBCHEM_BOND_UDEF_STEREO_COUNT>
0

> <PUBCHEM_ISOTOPIC_ATOM_COUNT>
0

> <PUBCHEM_COMPONENT_COUNT>
1

> <PUBCHEM_CACTVS_TAUTO_COUNT>
1

> <PUBCHEM_COORDINATE_TYPE>
1
5
255

> <PUBCHEM_BONDANNOTATIONS>
3  4  8
3  6  8
4  7  8
5  6  8
5  8  8
7  8  8

$$$$
46398708
  -OEChem-11301217572D

 17 17  0     0  0  0  0  0  0999 V2000
    2.0000   -0.0185    0.0000 Cl  0  0  0  0  0  0  0  0  0  0  0  0
    2.0000   -2.0185    0.0000 Cl  0  0  0  0  0  0  0  0  0  0  0  0
    3.7320    0.9815    0.0000 N   0  0  0  0  0  0  0  0  0  0  0  0
    4.5981    1.4815    0.0000 N   0  3  0  0  0  0  0  0  0  0  0  0
    3.7320   -0.0185    0.0000 C   0  0  0  0  0  0  0  0  0  0  0  0
    2.8660   -0.5185    0.0000 C   0  0  0  0  0  0  0  0  0  0  0  0
    4.5981   -0.5185    0.0000 C   0  0  0  0  0  0  0  0  0  0  0  0
    2.8660   -1.5185    0.0000 C   0  0  0  0  0  0  0  0  0  0  0  0
    4.5981   -1.5185    0.0000 C   0  0  0  0  0  0  0  0  0  0  0  0
    3.7320   -2.0185    0.0000 C   0  0  0  0  0  0  0  0  0  0  0  0
    5.1350   -0.2085    0.0000 H   0  0  0  0  0  0  0  0  0  0  0  0
    3.1951    1.2915    0.0000 H   0  0  0  0  0  0  0  0  0  0  0  0
    5.1350   -1.8285    0.0000 H   0  0  0  0  0  0  0  0  0  0  0  0
    3.7320   -2.6385    0.0000 H   0  0  0  0  0  0  0  0  0  0  0  0
    5.1350    1.7915    0.0000 H   0  0  0  0  0  0  0  0  0  0  0  0
    4.2881    2.0185    0.0000 H   0  0  0  0  0  0  0  0  0  0  0  0
    4.9081    0.9446    0.0000 H   0  0  0  0  0  0  0  0  0  0  0  0
  1  6  1  0  0  0  0
  2  8  1  0  0  0  0
  3  4  1  0  0  0  0
  3  5  1  0  0  0  0
  3 12  1  0  0  0  0
  4 15  1  0  0  0  0
  4 16  1  0  0  0  0
  4 17  1  0  0  0  0
  5  6  2  0  0  0  0
  5  7  1  0  0  0  0
  6  8  1  0  0  0  0
  7  9  2  0  0  0  0
  7 11  1  0  0  0  0
  8 10  2  0  0  0  0
  9 10  1  0  0  0  0
  9 13  1  0  0  0  0
 10 14  1  0  0  0  0
M  CHG  1   4   1
M  END
> <PUBCHEM_COMPOUND_CID>
46398708

> <PUBCHEM_COMPOUND_CANONICALIZED>
1

> <PUBCHEM_CACTVS_COMPLEXITY>
110

> <PUBCHEM_CACTVS_HBOND_ACCEPTOR>
1

> <PUBCHEM_CACTVS_HBOND_DONOR>
2

> <PUBCHEM_CACTVS_ROTATABLE_BOND>
1

> <PUBCHEM_CACTVS_SUBSKEYS>
AAADcYBjAAAGAAAAAAAAAAAAAAAAAAAAAAAwAAAAAAAAAAABAAAAHAIYAAAACAqBECAwwIBiAACAACRCQACCBAAgBwIYqkAAZogIICKBk5GAIABgkAAIyAcQAAAAAAAAAAIAABQAAAAABAAAKAAAAAAAAA==

> <PUBCHEM_IUPAC_OPENEYE_NAME>
(2,3-dichloroanilino)ammonium

> <PUBCHEM_IUPAC_CAS_NAME>
(2,3-dichloroanilino)ammonium

> <PUBCHEM_IUPAC_NAME>
(2,3-dichloroanilino)azanium

> <PUBCHEM_IUPAC_SYSTEMATIC_NAME>
[[2,3-bis(chloranyl)phenyl]amino]azanium

> <PUBCHEM_IUPAC_TRADITIONAL_NAME>
(2,3-dichloroanilino)ammonium

> <PUBCHEM_IUPAC_INCHI>
InChI=1S/C6H6Cl2N2/c7-4-2-1-3-5(10-9)6(4)8/h1-3,10H,9H2/p+1

> <PUBCHEM_IUPAC_INCHIKEY>
HPIALSXRVQRGMK-UHFFFAOYSA-O

> <PUBCHEM_XLOGP3>
2.3

> <PUBCHEM_EXACT_MASS>
176.998629

> <PUBCHEM_MOLECULAR_FORMULA>
C6H7Cl2N2+

> <PUBCHEM_MOLECULAR_WEIGHT>
178.03918

> <PUBCHEM_OPENEYE_CAN_SMILES>
C1=CC(=C(C(=C1)Cl)Cl)N[NH3+]

> <PUBCHEM_OPENEYE_ISO_SMILES>
C1=CC(=C(C(=C1)Cl)Cl)N[NH3+]

> <PUBCHEM_CACTVS_TPSA>
39.7

> <PUBCHEM_MONOISOTOPIC_WEIGHT>
176.998629

> <PUBCHEM_TOTAL_CHARGE>
1

> <PUBCHEM_HEAVY_ATOM_COUNT>
10

> <PUBCHEM_ATOM_DEF_STEREO_COUNT>
0

> <PUBCHEM_ATOM_UDEF_STEREO_COUNT>
0

> <PUBCHEM_BOND_DEF_STEREO_COUNT>
0

> <PUBCHEM_BOND_UDEF_STEREO_COUNT>
0

> <PUBCHEM_ISOTOPIC_ATOM_COUNT>
0

> <PUBCHEM_COMPONENT_COUNT>
1

> <PUBCHEM_CACTVS_TAUTO_COUNT>
1

> <PUBCHEM_COORDINATE_TYPE>
1
5
255

> <PUBCHEM_BONDANNOTATIONS>
5  6  8
5  7  8
6  8  8
7  9  8
8  10  8
9  10  8

$$$$
46399612
  -OEChem-11301217572D

 45 46  0     0  0  0  0  0  0999 V2000
    6.3301   -3.8730    0.0000 S   0  0  0  0  0  0  0  0  0  0  0  0
   10.6603    4.6270    0.0000 F   0  0  0  0  0  0  0  0  0  0  0  0
    9.2942    4.9930    0.0000 F   0  0  0  0  0  0  0  0  0  0  0  0
   10.2942    3.2610    0.0000 F   0  0  0  0  0  0  0  0  0  0  0  0
    2.8660   -1.8730    0.0000 O   0  0  0  0  0  0  0  0  0  0  0  0
    3.7320   -0.3730    0.0000 O   0  0  0  0  0  0  0  0  0  0  0  0
    5.8301   -4.7390    0.0000 O   0  0  0  0  0  0  0  0  0  0  0  0
    6.8301   -3.0070    0.0000 O   0  0  0  0  0  0  0  0  0  0  0  0
    5.4641   -0.3730    0.0000 N   0  0  0  0  0  0  0  0  0  0  0  0
    6.3301    2.1270    0.0000 N   0  0  0  0  0  0  0  0  0  0  0  0
    8.0622    2.1270    0.0000 N   0  0  0  0  0  0  0  0  0  0  0  0
    7.1962   -4.3730    0.0000 N   0  0  0  0  0  0  0  0  0  0  0  0
    5.4641    0.6270    0.0000 C   0  0  0  0  0  0  0  0  0  0  0  0
    4.5981   -1.8730    0.0000 C   0  0  0  0  0  0  0  0  0  0  0  0
    6.3301    1.1270    0.0000 C   0  0  0  0  0  0  0  0  0  0  0  0
    5.4641   -3.3730    0.0000 C   0  0  0  0  0  0  0  0  0  0  0  0
    5.4641   -2.3730    0.0000 C   0  0  0  0  0  0  0  0  0  0  0  0
    3.7320   -2.3730    0.0000 C   0  0  0  0  0  0  0  0  0  0  0  0
    4.5981   -0.8730    0.0000 C   0  0  0  0  0  0  0  0  0  0  0  0
    4.5981   -3.8730    0.0000 C   0  0  0  0  0  0  0  0  0  0  0  0
    3.7320   -3.3730    0.0000 C   0  0  0  0  0  0  0  0  0  0  0  0
    7.1962    2.6270    0.0000 C   0  0  0  0  0  0  0  0  0  0  0  0
    7.1962    3.6270    0.0000 C   0  0  0  0  0  0  0  0  0  0  0  0
    8.9282    3.6270    0.0000 C   0  0  0  0  0  0  0  0  0  0  0  0
    8.0622    4.1270    0.0000 C   0  0  0  0  0  0  0  0  0  0  0  0
    8.9282    2.6270    0.0000 C   0  0  0  0  0  0  0  0  0  0  0  0
    9.7942    4.1270    0.0000 C   0  0  0  0  0  0  0  0  0  0  0  0
    2.0000   -2.3730    0.0000 C   0  0  0  0  0  0  0  0  0  0  0  0
    5.2520    1.2096    0.0000 H   0  0  0  0  0  0  0  0  0  0  0  0
    4.8535    0.5193    0.0000 H   0  0  0  0  0  0  0  0  0  0  0  0
    6.5422    0.5444    0.0000 H   0  0  0  0  0  0  0  0  0  0  0  0
    6.9407    1.2346    0.0000 H   0  0  0  0  0  0  0  0  0  0  0  0
    6.0010   -2.0630    0.0000 H   0  0  0  0  0  0  0  0  0  0  0  0
    6.0010   -0.6830    0.0000 H   0  0  0  0  0  0  0  0  0  0  0  0
    4.5981   -4.4930    0.0000 H   0  0  0  0  0  0  0  0  0  0  0  0
    5.7932    2.4370    0.0000 H   0  0  0  0  0  0  0  0  0  0  0  0
    3.1951   -3.6830    0.0000 H   0  0  0  0  0  0  0  0  0  0  0  0
    6.6592    3.9370    0.0000 H   0  0  0  0  0  0  0  0  0  0  0  0
    8.0622    4.7470    0.0000 H   0  0  0  0  0  0  0  0  0  0  0  0
    9.4651    2.3170    0.0000 H   0  0  0  0  0  0  0  0  0  0  0  0
    7.1962   -4.9930    0.0000 H   0  0  0  0  0  0  0  0  0  0  0  0
    7.7331   -4.0630    0.0000 H   0  0  0  0  0  0  0  0  0  0  0  0
    1.6900   -1.8361    0.0000 H   0  0  0  0  0  0  0  0  0  0  0  0
    1.4631   -2.6830    0.0000 H   0  0  0  0  0  0  0  0  0  0  0  0
    2.3100   -2.9099    0.0000 H   0  0  0  0  0  0  0  0  0  0  0  0
  1  7  2  0  0  0  0
  1  8  2  0  0  0  0
  1 12  1  0  0  0  0
  1 16  1  0  0  0  0
  2 27  1  0  0  0  0
  3 27  1  0  0  0  0
  4 27  1  0  0  0  0
  5 18  1  0  0  0  0
  5 28  1  0  0  0  0
  6 19  2  0  0  0  0
  9 13  1  0  0  0  0
  9 19  1  0  0  0  0
  9 34  1  0  0  0  0
 10 15  1  0  0  0  0
 10 22  1  0  0  0  0
 10 36  1  0  0  0  0
 11 22  2  0  0  0  0
 11 26  1  0  0  0  0
 12 41  1  0  0  0  0
 12 42  1  0  0  0  0
 13 15  1  0  0  0  0
 13 29  1  0  0  0  0
 13 30  1  0  0  0  0
 14 17  1  0  0  0  0
 14 18  2  0  0  0  0
 14 19  1  0  0  0  0
 15 31  1  0  0  0  0
 15 32  1  0  0  0  0
 16 17  2  0  0  0  0
 16 20  1  0  0  0  0
 17 33  1  0  0  0  0
 18 21  1  0  0  0  0
 20 21  2  0  0  0  0
 20 35  1  0  0  0  0
 21 37  1  0  0  0  0
 22 23  1  0  0  0  0
 23 25  2  0  0  0  0
 23 38  1  0  0  0  0
 24 25  1  0  0  0  0
 24 26  2  0  0  0  0
 24 27  1  0  0  0  0
 25 39  1  0  0  0  0
 26 40  1  0  0  0  0
 28 43  1  0  0  0  0
 28 44  1  0  0  0  0
 28 45  1  0  0  0  0
M  END
> <PUBCHEM_COMPOUND_CID>
46399612

> <PUBCHEM_COMPOUND_CANONICALIZED>
1

> <PUBCHEM_CACTVS_COMPLEXITY>
626

> <PUBCHEM_CACTVS_HBOND_ACCEPTOR>
10

> <PUBCHEM_CACTVS_HBOND_DONOR>
3

> <PUBCHEM_CACTVS_ROTATABLE_BOND>
7

> <PUBCHEM_CACTVS_SUBSKEYS>
AAADceB7uYBAAAAAAAAAAAAAAAAAAAAAAAA8QAAAAAAAAAABwAAAHwQQQAAADATB2hY/t5LIFAKoAjN3dHDCiDk1IiAJ2Lk+bNiMZvbEvZuUMWhu9hPI6aeYyCCOAIAAgAAIAAABAAEAABAAAAAAAAAAAA==

> <PUBCHEM_IUPAC_OPENEYE_NAME>
2-methoxy-5-sulfamoyl-N-[2-[[5-(trifluoromethyl)-2-pyridyl]amino]ethyl]benzamide

> <PUBCHEM_IUPAC_CAS_NAME>
2-methoxy-5-sulfamoyl-N-[2-[[5-(trifluoromethyl)-2-pyridinyl]amino]ethyl]benzamide

> <PUBCHEM_IUPAC_NAME>
2-methoxy-5-sulfamoyl-N-[2-[[5-(trifluoromethyl)pyridin-2-yl]amino]ethyl]benzamide

> <PUBCHEM_IUPAC_SYSTEMATIC_NAME>
2-methoxy-5-sulfamoyl-N-[2-[[5-(trifluoromethyl)pyridin-2-yl]amino]ethyl]benzamide

> <PUBCHEM_IUPAC_TRADITIONAL_NAME>
2-methoxy-5-sulfamoyl-N-[2-[[5-(trifluoromethyl)-2-pyridyl]amino]ethyl]benzamide

> <PUBCHEM_IUPAC_INCHI>
InChI=1S/C16H17F3N4O4S/c1-27-13-4-3-11(28(20,25)26)8-12(13)15(24)22-7-6-21-14-5-2-10(9-23-14)16(17,18)19/h2-5,8-9H,6-7H2,1H3,(H,21,23)(H,22,24)(H2,20,25,26)

> <PUBCHEM_IUPAC_INCHIKEY>
HMFGHYJDUIEKEC-UHFFFAOYSA-N

> <PUBCHEM_XLOGP3>
1.3

> <PUBCHEM_EXACT_MASS>
418.092261

> <PUBCHEM_MOLECULAR_FORMULA>
C16H17F3N4O4S

> <PUBCHEM_MOLECULAR_WEIGHT>
418.39079

> <PUBCHEM_OPENEYE_CAN_SMILES>
COC1=C(C=C(C=C1)S(=O)(=O)N)C(=O)NCCNC2=NC=C(C=C2)C(F)(F)F

> <PUBCHEM_OPENEYE_ISO_SMILES>
COC1=C(C=C(C=C1)S(=O)(=O)N)C(=O)NCCNC2=NC=C(C=C2)C(F)(F)F

> <PUBCHEM_CACTVS_TPSA>
132

> <PUBCHEM_MONOISOTOPIC_WEIGHT>
418.092261

> <PUBCHEM_TOTAL_CHARGE>
0

> <PUBCHEM_HEAVY_ATOM_COUNT>
28

> <PUBCHEM_ATOM_DEF_STEREO_COUNT>
0

> <PUBCHEM_ATOM_UDEF_STEREO_COUNT>
0

> <PUBCHEM_BOND_DEF_STEREO_COUNT>
0

> <PUBCHEM_BOND_UDEF_STEREO_COUNT>
0

> <PUBCHEM_ISOTOPIC_ATOM_COUNT>
0

> <PUBCHEM_COMPONENT_COUNT>
1

> <PUBCHEM_CACTVS_TAUTO_COUNT>
4

> <PUBCHEM_COORDINATE_TYPE>
1
5
255

> <PUBCHEM_BONDANNOTATIONS>
11  22  8
11  26  8
14  17  8
14  18  8
16  17  8
16  20  8
18  21  8
20  21  8
22  23  8
23  25  8
24  25  8
24  26  8

$$$$
