65364760
  -OEChem-11301218272D

 26 27  0     0  0  0  0  0  0999 V2000
    5.9674    1.0055    0.0000 O   0  0  0  0  0  0  0  0  0  0  0  0
    4.6783   -0.1513    0.0000 N   0  0  0  0  0  0  0  0  0  0  0  0
    3.7320   -0.4560    0.0000 C   0  0  0  0  0  0  0  0  0  0  0  0
    5.2619   -0.9560    0.0000 C   0  0  0  0  0  0  0  0  0  0  0  0
    3.7320   -1.4560    0.0000 C   0  0  0  0  0  0  0  0  0  0  0  0
    4.6783   -1.7607    0.0000 C   0  0  0  0  0  0  0  0  0  0  0  0
    4.9889    0.7993    0.0000 C   0  0  0  0  0  0  0  0  0  0  0  0
    2.8660    0.0440    0.0000 C   0  0  0  0  0  0  0  0  0  0  0  0
    2.8660   -1.9560    0.0000 C   0  0  0  0  0  0  0  0  0  0  0  0
    6.2619   -0.9560    0.0000 C   0  0  0  0  0  0  0  0  0  0  0  0
    2.0000   -0.4560    0.0000 C   0  0  0  0  0  0  0  0  0  0  0  0
    2.0000   -1.4560    0.0000 C   0  0  0  0  0  0  0  0  0  0  0  0
    6.2781    1.9560    0.0000 C   0  0  0  0  0  0  0  0  0  0  0  0
    4.8709   -2.3500    0.0000 H   0  0  0  0  0  0  0  0  0  0  0  0
    4.9684    1.4189    0.0000 H   0  0  0  0  0  0  0  0  0  0  0  0
    4.3751    0.8866    0.0000 H   0  0  0  0  0  0  0  0  0  0  0  0
    2.8660    0.6640    0.0000 H   0  0  0  0  0  0  0  0  0  0  0  0
    2.8660   -2.5760    0.0000 H   0  0  0  0  0  0  0  0  0  0  0  0
    6.2619   -1.5760    0.0000 H   0  0  0  0  0  0  0  0  0  0  0  0
    6.8819   -0.9560    0.0000 H   0  0  0  0  0  0  0  0  0  0  0  0
    6.2619   -0.3360    0.0000 H   0  0  0  0  0  0  0  0  0  0  0  0
    1.4631   -0.1460    0.0000 H   0  0  0  0  0  0  0  0  0  0  0  0
    1.4631   -1.7660    0.0000 H   0  0  0  0  0  0  0  0  0  0  0  0
    6.8674    1.7634    0.0000 H   0  0  0  0  0  0  0  0  0  0  0  0
    6.4707    2.5453    0.0000 H   0  0  0  0  0  0  0  0  0  0  0  0
    5.6888    2.1486    0.0000 H   0  0  0  0  0  0  0  0  0  0  0  0
  1  7  1  0  0  0  0
  1 13  1  0  0  0  0
  2  3  1  0  0  0  0
  2  4  1  0  0  0  0
  2  7  1  0  0  0  0
  3  5  1  0  0  0  0
  3  8  2  0  0  0  0
  4  6  2  0  0  0  0
  4 10  1  0  0  0  0
  5  6  1  0  0  0  0
  5  9  2  0  0  0  0
  6 14  1  0  0  0  0
  7 15  1  0  0  0  0
  7 16  1  0  0  0  0
  8 11  1  0  0  0  0
  8 17  1  0  0  0  0
  9 12  1  0  0  0  0
  9 18  1  0  0  0  0
 10 19  1  0  0  0  0
 10 20  1  0  0  0  0
 10 21  1  0  0  0  0
 11 12  2  0  0  0  0
 11 22  1  0  0  0  0
 12 23  1  0  0  0  0
 13 24  1  0  0  0  0
 13 25  1  0  0  0  0
 13 26  1  0  0  0  0
M  END
> <PUBCHEM_COMPOUND_CID>
65364760

> <PUBCHEM_COMPOUND_CANONICALIZED>
1

> <PUBCHEM_CACTVS_COMPLEXITY>
172

> <PUBCHEM_CACTVS_HBOND_ACCEPTOR>
1

> <PUBCHEM_CACTVS_HBOND_DONOR>
0

> <PUBCHEM_CACTVS_ROTATABLE_BOND>
2

> <PUBCHEM_CACTVS_SUBSKEYS>
AAADccByIAAAAAAAAAAAAAAAAAAAAWAAAAAwAAAAAAAAAFgB8AAAHgAAAAAADAiBHgYywPMMFACgAyRiRACCgCAhAiAI2CA4ZJgIIOLAkZGEIAhggADIyAcQgIAOAAAAAAACAAAAAAAAAAQAAAAAAAAAAA==

> <PUBCHEM_IUPAC_OPENEYE_NAME>
1-(methoxymethyl)-2-methyl-indole

> <PUBCHEM_IUPAC_CAS_NAME>
1-(methoxymethyl)-2-methylindole

> <PUBCHEM_IUPAC_NAME>
1-(methoxymethyl)-2-methylindole

> <PUBCHEM_IUPAC_SYSTEMATIC_NAME>
1-(methoxymethyl)-2-methyl-indole

> <PUBCHEM_IUPAC_TRADITIONAL_NAME>
1-(methoxymethyl)-2-methyl-indole

> <PUBCHEM_IUPAC_INCHI>
InChI=1S/C11H13NO/c1-9-7-10-5-3-4-6-11(10)12(9)8-13-2/h3-7H,8H2,1-2H3

> <PUBCHEM_IUPAC_INCHIKEY>
DWPJNBINOXYLRH-UHFFFAOYSA-N

> <PUBCHEM_XLOGP3>
2.7

> <PUBCHEM_EXACT_MASS>
175.099714

> <PUBCHEM_MOLECULAR_FORMULA>
C11H13NO

> <PUBCHEM_MOLECULAR_WEIGHT>
175.22702

> <PUBCHEM_OPENEYE_CAN_SMILES>
CC1=CC2=CC=CC=C2N1COC

> <PUBCHEM_OPENEYE_ISO_SMILES>
CC1=CC2=CC=CC=C2N1COC

> <PUBCHEM_CACTVS_TPSA>
14.2

> <PUBCHEM_MONOISOTOPIC_WEIGHT>
175.099714

> <PUBCHEM_TOTAL_CHARGE>
0

> <PUBCHEM_HEAVY_ATOM_COUNT>
13

> <PUBCHEM_ATOM_DEF_STEREO_COUNT>
0

> <PUBCHEM_ATOM_UDEF_STEREO_COUNT>
0

> <PUBCHEM_BOND_DEF_STEREO_COUNT>
0

> <PUBCHEM_BOND_UDEF_STEREO_COUNT>
0

> <PUBCHEM_ISOTOPIC_ATOM_COUNT>
0

> <PUBCHEM_COMPONENT_COUNT>
1

> <PUBCHEM_CACTVS_TAUTO_COUNT>
1

> <PUBCHEM_COORDINATE_TYPE>
1
5
255

> <PUBCHEM_BONDANNOTATIONS>
11  12  8
2  3  8
2  4  8
3  5  8
3  8  8
4  6  8
5  6  8
5  9  8
8  11  8
9  12  8

$$$$
65367315
  -OEChem-11301218272D

 29 30  0     0  0  0  0  0  0999 V2000
    5.9674    0.9024    0.0000 O   0  0  0  0  0  0  0  0  0  0  0  0
    4.6783   -0.2544    0.0000 N   0  0  0  0  0  0  0  0  0  0  0  0
    3.7320   -0.5591    0.0000 C   0  0  0  0  0  0  0  0  0  0  0  0
    5.2619   -1.0591    0.0000 C   0  0  0  0  0  0  0  0  0  0  0  0
    3.7320   -1.5591    0.0000 C   0  0  0  0  0  0  0  0  0  0  0  0
    4.6783   -1.8638    0.0000 C   0  0  0  0  0  0  0  0  0  0  0  0
    4.9889    0.6961    0.0000 C   0  0  0  0  0  0  0  0  0  0  0  0
    2.8660   -0.0591    0.0000 C   0  0  0  0  0  0  0  0  0  0  0  0
    2.8660   -2.0591    0.0000 C   0  0  0  0  0  0  0  0  0  0  0  0
    6.2619   -1.0591    0.0000 C   0  0  0  0  0  0  0  0  0  0  0  0
    2.0000   -0.5591    0.0000 C   0  0  0  0  0  0  0  0  0  0  0  0
    2.0000   -1.5591    0.0000 C   0  0  0  0  0  0  0  0  0  0  0  0
    6.2781    1.8529    0.0000 C   0  0  0  0  0  0  0  0  0  0  0  0
    7.2566    2.0591    0.0000 C   0  0  0  0  0  0  0  0  0  0  0  0
    4.8709   -2.4532    0.0000 H   0  0  0  0  0  0  0  0  0  0  0  0
    4.9684    1.3158    0.0000 H   0  0  0  0  0  0  0  0  0  0  0  0
    4.3751    0.7835    0.0000 H   0  0  0  0  0  0  0  0  0  0  0  0
    2.8660    0.5609    0.0000 H   0  0  0  0  0  0  0  0  0  0  0  0
    2.8660   -2.6791    0.0000 H   0  0  0  0  0  0  0  0  0  0  0  0
    6.2619   -1.6791    0.0000 H   0  0  0  0  0  0  0  0  0  0  0  0
    6.8819   -1.0591    0.0000 H   0  0  0  0  0  0  0  0  0  0  0  0
    6.2619   -0.4391    0.0000 H   0  0  0  0  0  0  0  0  0  0  0  0
    1.4631   -0.2491    0.0000 H   0  0  0  0  0  0  0  0  0  0  0  0
    1.4631   -1.8691    0.0000 H   0  0  0  0  0  0  0  0  0  0  0  0
    6.2575    2.4726    0.0000 H   0  0  0  0  0  0  0  0  0  0  0  0
    5.6643    1.9402    0.0000 H   0  0  0  0  0  0  0  0  0  0  0  0
    7.3845    1.4524    0.0000 H   0  0  0  0  0  0  0  0  0  0  0  0
    7.8633    2.1870    0.0000 H   0  0  0  0  0  0  0  0  0  0  0  0
    7.1288    2.6658    0.0000 H   0  0  0  0  0  0  0  0  0  0  0  0
  1  7  1  0  0  0  0
  1 13  1  0  0  0  0
  2  3  1  0  0  0  0
  2  4  1  0  0  0  0
  2  7  1  0  0  0  0
  3  5  1  0  0  0  0
  3  8  2  0  0  0  0
  4  6  2  0  0  0  0
  4 10  1  0  0  0  0
  5  6  1  0  0  0  0
  5  9  2  0  0  0  0
  6 15  1  0  0  0  0
  7 16  1  0  0  0  0
  7 17  1  0  0  0  0
  8 11  1  0  0  0  0
  8 18  1  0  0  0  0
  9 12  1  0  0  0  0
  9 19  1  0  0  0  0
 10 20  1  0  0  0  0
 10 21  1  0  0  0  0
 10 22  1  0  0  0  0
 11 12  2  0  0  0  0
 11 23  1  0  0  0  0
 12 24  1  0  0  0  0
 13 14  1  0  0  0  0
 13 25  1  0  0  0  0
 13 26  1  0  0  0  0
 14 27  1  0  0  0  0
 14 28  1  0  0  0  0
 14 29  1  0  0  0  0
M  END
> <PUBCHEM_COMPOUND_CID>
65367315

> <PUBCHEM_COMPOUND_CANONICALIZED>
1

> <PUBCHEM_CACTVS_COMPLEXITY>
183

> <PUBCHEM_CACTVS_HBOND_ACCEPTOR>
1

> <PUBCHEM_CACTVS_HBOND_DONOR>
0

> <PUBCHEM_CACTVS_ROTATABLE_BOND>
3

> <PUBCHEM_CACTVS_SUBSKEYS>
AAADccByIAAAAAAAAAAAAAAAAAAAAWAAAAAwAAAAAAAAAFgB8AAAHgAAAAAADAihngYywPMMFACgAyRiRACCgCAhAiAI2CA4ZJgIIOLAkZGMIAhggADIyAcQgIAOAAAAAAACAAAAAAAAAAQAAAAAAAAAAA==

> <PUBCHEM_IUPAC_OPENEYE_NAME>
1-(ethoxymethyl)-2-methyl-indole

> <PUBCHEM_IUPAC_CAS_NAME>
1-(ethoxymethyl)-2-methylindole

> <PUBCHEM_IUPAC_NAME>
1-(ethoxymethyl)-2-methylindole

> <PUBCHEM_IUPAC_SYSTEMATIC_NAME>
1-(ethoxymethyl)-2-methyl-indole

> <PUBCHEM_IUPAC_TRADITIONAL_NAME>
1-(ethoxymethyl)-2-methyl-indole

> <PUBCHEM_IUPAC_INCHI>
InChI=1S/C12H15NO/c1-3-14-9-13-10(2)8-11-6-4-5-7-12(11)13/h4-8H,3,9H2,1-2H3

> <PUBCHEM_IUPAC_INCHIKEY>
LBBLFSHKJQFEAH-UHFFFAOYSA-N

> <PUBCHEM_XLOGP3>
3.1

> <PUBCHEM_EXACT_MASS>
189.115364

> <PUBCHEM_MOLECULAR_FORMULA>
C12H15NO

> <PUBCHEM_MOLECULAR_WEIGHT>
189.2536

> <PUBCHEM_OPENEYE_CAN_SMILES>
CCOCN1C(=CC2=CC=CC=C21)C

> <PUBCHEM_OPENEYE_ISO_SMILES>
CCOCN1C(=CC2=CC=CC=C21)C

> <PUBCHEM_CACTVS_TPSA>
14.2

> <PUBCHEM_MONOISOTOPIC_WEIGHT>
189.115364

> <PUBCHEM_TOTAL_CHARGE>
0

> <PUBCHEM_HEAVY_ATOM_COUNT>
14

> <PUBCHEM_ATOM_DEF_STEREO_COUNT>
0

> <PUBCHEM_ATOM_UDEF_STEREO_COUNT>
0

> <PUBCHEM_BOND_DEF_STEREO_COUNT>
0

> <PUBCHEM_BOND_UDEF_STEREO_COUNT>
0

> <PUBCHEM_ISOTOPIC_ATOM_COUNT>
0

> <PUBCHEM_COMPONENT_COUNT>
1

> <PUBCHEM_CACTVS_TAUTO_COUNT>
1

> <PUBCHEM_COORDINATE_TYPE>
1
5
255

> <PUBCHEM_BONDANNOTATIONS>
11  12  8
2  3  8
2  4  8
3  5  8
3  8  8
4  6  8
5  6  8
5  9  8
8  11  8
9  12  8

$$$$
