51185743
  -OEChem-11301218002D

 47 48  0     0  0  0  0  0  0999 V2000
    6.6353   -0.6985    0.0000 O   0  0  0  0  0  0  0  0  0  0  0  0
    6.2781    0.9963    0.0000 N   0  0  0  0  0  0  0  0  0  0  0  0
    4.6783   -2.7204    0.0000 N   0  0  0  0  0  0  0  0  0  0  0  0
    8.5458    2.3592    0.0000 C   0  0  0  0  0  0  0  0  0  0  0  0
    7.2566    1.2025    0.0000 C   0  0  0  0  0  0  0  0  0  0  0  0
    8.2351    1.4087    0.0000 C   0  0  0  0  0  0  0  0  0  0  0  0
    8.8564    3.3098    0.0000 C   0  0  0  0  0  0  0  0  0  0  0  0
    9.4963    2.0486    0.0000 C   0  0  0  0  0  0  0  0  0  0  0  0
    7.5952    2.6699    0.0000 C   0  0  0  0  0  0  0  0  0  0  0  0
    7.0504    2.1810    0.0000 C   0  0  0  0  0  0  0  0  0  0  0  0
    7.4628    0.2240    0.0000 C   0  0  0  0  0  0  0  0  0  0  0  0
    5.9674    0.0458    0.0000 C   0  0  0  0  0  0  0  0  0  0  0  0
    4.9889   -0.1605    0.0000 C   0  0  0  0  0  0  0  0  0  0  0  0
    4.6783   -1.1110    0.0000 C   0  0  0  0  0  0  0  0  0  0  0  0
    3.7320   -1.4157    0.0000 C   0  0  0  0  0  0  0  0  0  0  0  0
    3.7320   -2.4157    0.0000 C   0  0  0  0  0  0  0  0  0  0  0  0
    5.2619   -1.9157    0.0000 C   0  0  0  0  0  0  0  0  0  0  0  0
    2.8660   -0.9157    0.0000 C   0  0  0  0  0  0  0  0  0  0  0  0
    2.8660   -2.9157    0.0000 C   0  0  0  0  0  0  0  0  0  0  0  0
    2.0000   -1.4157    0.0000 C   0  0  0  0  0  0  0  0  0  0  0  0
    2.0000   -2.4157    0.0000 C   0  0  0  0  0  0  0  0  0  0  0  0
    8.2557    0.7891    0.0000 H   0  0  0  0  0  0  0  0  0  0  0  0
    8.8489    1.3214    0.0000 H   0  0  0  0  0  0  0  0  0  0  0  0
    7.7879    3.2592    0.0000 H   0  0  0  0  0  0  0  0  0  0  0  0
    9.4458    3.1172    0.0000 H   0  0  0  0  0  0  0  0  0  0  0  0
    9.0490    3.8991    0.0000 H   0  0  0  0  0  0  0  0  0  0  0  0
    8.2671    3.5024    0.0000 H   0  0  0  0  0  0  0  0  0  0  0  0
    9.3037    1.4593    0.0000 H   0  0  0  0  0  0  0  0  0  0  0  0
   10.0856    1.8560    0.0000 H   0  0  0  0  0  0  0  0  0  0  0  0
    9.6889    2.6379    0.0000 H   0  0  0  0  0  0  0  0  0  0  0  0
    7.0059    2.8625    0.0000 H   0  0  0  0  0  0  0  0  0  0  0  0
    7.4026    2.0806    0.0000 H   0  0  0  0  0  0  0  0  0  0  0  0
    6.8562    0.0961    0.0000 H   0  0  0  0  0  0  0  0  0  0  0  0
    7.5907   -0.3827    0.0000 H   0  0  0  0  0  0  0  0  0  0  0  0
    7.6571    2.3089    0.0000 H   0  0  0  0  0  0  0  0  0  0  0  0
    6.9225    2.7877    0.0000 H   0  0  0  0  0  0  0  0  0  0  0  0
    6.4437    2.0532    0.0000 H   0  0  0  0  0  0  0  0  0  0  0  0
    8.0695    0.3519    0.0000 H   0  0  0  0  0  0  0  0  0  0  0  0
    5.8640    1.4578    0.0000 H   0  0  0  0  0  0  0  0  0  0  0  0
    4.9684    0.4592    0.0000 H   0  0  0  0  0  0  0  0  0  0  0  0
    4.3751   -0.0731    0.0000 H   0  0  0  0  0  0  0  0  0  0  0  0
    5.8819   -1.9157    0.0000 H   0  0  0  0  0  0  0  0  0  0  0  0
    4.8709   -3.3098    0.0000 H   0  0  0  0  0  0  0  0  0  0  0  0
    2.8660   -0.2957    0.0000 H   0  0  0  0  0  0  0  0  0  0  0  0
    2.8660   -3.5357    0.0000 H   0  0  0  0  0  0  0  0  0  0  0  0
    1.4631   -1.1057    0.0000 H   0  0  0  0  0  0  0  0  0  0  0  0
    1.4631   -2.7257    0.0000 H   0  0  0  0  0  0  0  0  0  0  0  0
  1 12  2  0  0  0  0
  2  5  1  0  0  0  0
  2 12  1  0  0  0  0
  2 39  1  0  0  0  0
  3 16  1  0  0  0  0
  3 17  1  0  0  0  0
  3 43  1  0  0  0  0
  4  6  1  0  0  0  0
  4  7  1  0  0  0  0
  4  8  1  0  0  0  0
  4  9  1  0  0  0  0
  5  6  1  0  0  0  0
  5 10  1  0  0  0  0
  5 11  1  0  0  0  0
  6 22  1  0  0  0  0
  6 23  1  0  0  0  0
  7 25  1  0  0  0  0
  7 26  1  0  0  0  0
  7 27  1  0  0  0  0
  8 28  1  0  0  0  0
  8 29  1  0  0  0  0
  8 30  1  0  0  0  0
  9 24  1  0  0  0  0
  9 31  1  0  0  0  0
  9 32  1  0  0  0  0
 10 35  1  0  0  0  0
 10 36  1  0  0  0  0
 10 37  1  0  0  0  0
 11 33  1  0  0  0  0
 11 34  1  0  0  0  0
 11 38  1  0  0  0  0
 12 13  1  0  0  0  0
 13 14  1  0  0  0  0
 13 40  1  0  0  0  0
 13 41  1  0  0  0  0
 14 15  1  0  0  0  0
 14 17  2  0  0  0  0
 15 16  1  0  0  0  0
 15 18  2  0  0  0  0
 16 19  2  0  0  0  0
 17 42  1  0  0  0  0
 18 20  1  0  0  0  0
 18 44  1  0  0  0  0
 19 21  1  0  0  0  0
 19 45  1  0  0  0  0
 20 21  2  0  0  0  0
 20 46  1  0  0  0  0
 21 47  1  0  0  0  0
M  END
> <PUBCHEM_COMPOUND_CID>
51185743

> <PUBCHEM_COMPOUND_CANONICALIZED>
1

> <PUBCHEM_CACTVS_COMPLEXITY>
370

> <PUBCHEM_CACTVS_HBOND_ACCEPTOR>
1

> <PUBCHEM_CACTVS_HBOND_DONOR>
2

> <PUBCHEM_CACTVS_ROTATABLE_BOND>
5

> <PUBCHEM_CACTVS_SUBSKEYS>
AAADceB7IAAAAAAAAAAAAAAAAAAAAWAAAAAwAAAAAAAAAFgB8AAAHgAQAAAADojBngQ+wPLJkACoAzV3VACCgCAxAiAI2aE4ZJgIIPLAlZGEIAhglADIyAccicCfgAAAAAACAAAAAAAAAAQAAAAAAAAAAA==

> <PUBCHEM_IUPAC_OPENEYE_NAME>
2-(1H-indol-3-yl)-N-(1,1,3,3-tetramethylbutyl)acetamide

> <PUBCHEM_IUPAC_CAS_NAME>
2-(1H-indol-3-yl)-N-(2,4,4-trimethylpentan-2-yl)acetamide

> <PUBCHEM_IUPAC_NAME>
2-(1H-indol-3-yl)-N-(2,4,4-trimethylpentan-2-yl)acetamide

> <PUBCHEM_IUPAC_SYSTEMATIC_NAME>
2-(1H-indol-3-yl)-N-(2,4,4-trimethylpentan-2-yl)ethanamide

> <PUBCHEM_IUPAC_TRADITIONAL_NAME>
2-(1H-indol-3-yl)-N-(1,1,3,3-tetramethylbutyl)acetamide

> <PUBCHEM_IUPAC_INCHI>
InChI=1S/C18H26N2O/c1-17(2,3)12-18(4,5)20-16(21)10-13-11-19-15-9-7-6-8-14(13)15/h6-9,11,19H,10,12H2,1-5H3,(H,20,21)

> <PUBCHEM_IUPAC_INCHIKEY>
SNVZZTOHUUXTEB-UHFFFAOYSA-N

> <PUBCHEM_XLOGP3>
3.9

> <PUBCHEM_EXACT_MASS>
286.204513

> <PUBCHEM_MOLECULAR_FORMULA>
C18H26N2O

> <PUBCHEM_MOLECULAR_WEIGHT>
286.41184

> <PUBCHEM_OPENEYE_CAN_SMILES>
CC(C)(C)CC(C)(C)NC(=O)CC1=CNC2=CC=CC=C21

> <PUBCHEM_OPENEYE_ISO_SMILES>
CC(C)(C)CC(C)(C)NC(=O)CC1=CNC2=CC=CC=C21

> <PUBCHEM_CACTVS_TPSA>
44.9

> <PUBCHEM_MONOISOTOPIC_WEIGHT>
286.204513

> <PUBCHEM_TOTAL_CHARGE>
0

> <PUBCHEM_HEAVY_ATOM_COUNT>
21

> <PUBCHEM_ATOM_DEF_STEREO_COUNT>
0

> <PUBCHEM_ATOM_UDEF_STEREO_COUNT>
0

> <PUBCHEM_BOND_DEF_STEREO_COUNT>
0

> <PUBCHEM_BOND_UDEF_STEREO_COUNT>
0

> <PUBCHEM_ISOTOPIC_ATOM_COUNT>
0

> <PUBCHEM_COMPONENT_COUNT>
1

> <PUBCHEM_CACTVS_TAUTO_COUNT>
2

> <PUBCHEM_COORDINATE_TYPE>
1
5
255

> <PUBCHEM_BONDANNOTATIONS>
14  15  8
14  17  8
15  16  8
15  18  8
16  19  8
18  20  8
19  21  8
20  21  8
3  16  8
3  17  8

$$$$
51188148
  -OEChem-11301218002D

 45 47  0     1  0  0  0  0  0999 V2000
    5.6103    1.6375    0.0000 O   0  0  0  0  0  0  0  0  0  0  0  0
    7.2566    1.0994    0.0000 N   0  0  0  0  0  0  0  0  0  0  0  0
    4.6783   -2.8236    0.0000 N   0  0  0  0  0  0  0  0  0  0  0  0
    7.5673    2.0499    0.0000 C   0  0  3  0  0  0  0  0  0  0  0  0
    4.9889   -0.2636    0.0000 C   0  0  0  0  0  0  0  0  0  0  0  0
    5.9674   -0.0573    0.0000 C   0  0  0  0  0  0  0  0  0  0  0  0
    4.6783   -1.2141    0.0000 C   0  0  0  0  0  0  0  0  0  0  0  0
    3.7320   -1.5188    0.0000 C   0  0  0  0  0  0  0  0  0  0  0  0
    6.2781    0.8932    0.0000 C   0  0  0  0  0  0  0  0  0  0  0  0
    8.5458    2.2561    0.0000 C   0  0  0  0  0  0  0  0  0  0  0  0
    3.7320   -2.5188    0.0000 C   0  0  0  0  0  0  0  0  0  0  0  0
    6.8994    2.7942    0.0000 C   0  0  0  0  0  0  0  0  0  0  0  0
    5.2619   -2.0188    0.0000 C   0  0  0  0  0  0  0  0  0  0  0  0
    7.9244    0.3551    0.0000 C   0  0  0  0  0  0  0  0  0  0  0  0
    2.8660   -1.0188    0.0000 C   0  0  0  0  0  0  0  0  0  0  0  0
    2.8660   -3.0188    0.0000 C   0  0  0  0  0  0  0  0  0  0  0  0
    9.2136    1.5118    0.0000 C   0  0  0  0  0  0  0  0  0  0  0  0
    8.8564    3.2066    0.0000 C   0  0  0  0  0  0  0  0  0  0  0  0
    2.0000   -1.5188    0.0000 C   0  0  0  0  0  0  0  0  0  0  0  0
    2.0000   -2.5188    0.0000 C   0  0  0  0  0  0  0  0  0  0  0  0
   10.1921    1.7180    0.0000 C   0  0  0  0  0  0  0  0  0  0  0  0
    9.8349    3.4129    0.0000 C   0  0  0  0  0  0  0  0  0  0  0  0
   10.5028    2.6686    0.0000 C   0  0  0  0  0  0  0  0  0  0  0  0
    6.9606    1.9221    0.0000 H   0  0  0  0  0  0  0  0  0  0  0  0
    4.9684    0.3561    0.0000 H   0  0  0  0  0  0  0  0  0  0  0  0
    4.3751   -0.1762    0.0000 H   0  0  0  0  0  0  0  0  0  0  0  0
    5.9880   -0.6770    0.0000 H   0  0  0  0  0  0  0  0  0  0  0  0
    6.5812   -0.1447    0.0000 H   0  0  0  0  0  0  0  0  0  0  0  0
    7.3609    3.2083    0.0000 H   0  0  0  0  0  0  0  0  0  0  0  0
    6.4854    3.2557    0.0000 H   0  0  0  0  0  0  0  0  0  0  0  0
    6.4380    2.3802    0.0000 H   0  0  0  0  0  0  0  0  0  0  0  0
    5.8819   -2.0188    0.0000 H   0  0  0  0  0  0  0  0  0  0  0  0
    4.8709   -3.4129    0.0000 H   0  0  0  0  0  0  0  0  0  0  0  0
    7.4630   -0.0590    0.0000 H   0  0  0  0  0  0  0  0  0  0  0  0
    8.3385   -0.1064    0.0000 H   0  0  0  0  0  0  0  0  0  0  0  0
    8.3859    0.7692    0.0000 H   0  0  0  0  0  0  0  0  0  0  0  0
    2.8660   -0.3988    0.0000 H   0  0  0  0  0  0  0  0  0  0  0  0
    2.8660   -3.6388    0.0000 H   0  0  0  0  0  0  0  0  0  0  0  0
    9.0210    0.9225    0.0000 H   0  0  0  0  0  0  0  0  0  0  0  0
    8.4424    3.6681    0.0000 H   0  0  0  0  0  0  0  0  0  0  0  0
    1.4631   -1.2088    0.0000 H   0  0  0  0  0  0  0  0  0  0  0  0
    1.4631   -2.8288    0.0000 H   0  0  0  0  0  0  0  0  0  0  0  0
   10.6062    1.2566    0.0000 H   0  0  0  0  0  0  0  0  0  0  0  0
   10.0276    4.0022    0.0000 H   0  0  0  0  0  0  0  0  0  0  0  0
   11.1095    2.7964    0.0000 H   0  0  0  0  0  0  0  0  0  0  0  0
  1  9  2  0  0  0  0
  2  4  1  0  0  0  0
  2  9  1  0  0  0  0
  2 14  1  0  0  0  0
  3 11  1  0  0  0  0
  3 13  1  0  0  0  0
  3 33  1  0  0  0  0
  4 10  1  0  0  0  0
  4 12  1  0  0  0  0
  4 24  1  0  0  0  0
  5  6  1  0  0  0  0
  5  7  1  0  0  0  0
  5 25  1  0  0  0  0
  5 26  1  0  0  0  0
  6  9  1  0  0  0  0
  6 27  1  0  0  0  0
  6 28  1  0  0  0  0
  7  8  1  0  0  0  0
  7 13  2  0  0  0  0
  8 11  1  0  0  0  0
  8 15  2  0  0  0  0
 10 17  2  0  0  0  0
 10 18  1  0  0  0  0
 11 16  2  0  0  0  0
 12 29  1  0  0  0  0
 12 30  1  0  0  0  0
 12 31  1  0  0  0  0
 13 32  1  0  0  0  0
 14 34  1  0  0  0  0
 14 35  1  0  0  0  0
 14 36  1  0  0  0  0
 15 19  1  0  0  0  0
 15 37  1  0  0  0  0
 16 20  1  0  0  0  0
 16 38  1  0  0  0  0
 17 21  1  0  0  0  0
 17 39  1  0  0  0  0
 18 22  2  0  0  0  0
 18 40  1  0  0  0  0
 19 20  2  0  0  0  0
 19 41  1  0  0  0  0
 20 42  1  0  0  0  0
 21 23  2  0  0  0  0
 21 43  1  0  0  0  0
 22 23  1  0  0  0  0
 22 44  1  0  0  0  0
 23 45  1  0  0  0  0
M  END
> <PUBCHEM_COMPOUND_CID>
51188148

> <PUBCHEM_COMPOUND_CANONICALIZED>
1

> <PUBCHEM_CACTVS_COMPLEXITY>
391

> <PUBCHEM_CACTVS_HBOND_ACCEPTOR>
1

> <PUBCHEM_CACTVS_HBOND_DONOR>
1

> <PUBCHEM_CACTVS_ROTATABLE_BOND>
5

> <PUBCHEM_CACTVS_SUBSKEYS>
AAADceB7IAAAAAAAAAAAAAAAAAAAAWAAAAAwYAAAAAAAAFgB9AAAHgAQAAAADCjBngQ+wPPJkACoAzV3VACCgCAxAiAI2aE4ZJgIIPLAkZGEIAhglgDIyAcYicCOgAAAAAACAAAAAAAAAAQAAAAAAAAAAA==

> <PUBCHEM_IUPAC_OPENEYE_NAME>
3-(1H-indol-3-yl)-N-methyl-N-(1-phenylethyl)propanamide

> <PUBCHEM_IUPAC_CAS_NAME>
3-(1H-indol-3-yl)-N-methyl-N-(1-phenylethyl)propanamide

> <PUBCHEM_IUPAC_NAME>
3-(1H-indol-3-yl)-N-methyl-N-(1-phenylethyl)propanamide

> <PUBCHEM_IUPAC_SYSTEMATIC_NAME>
3-(1H-indol-3-yl)-N-methyl-N-(1-phenylethyl)propanamide

> <PUBCHEM_IUPAC_TRADITIONAL_NAME>
3-(1H-indol-3-yl)-N-methyl-N-(1-phenylethyl)propionamide

> <PUBCHEM_IUPAC_INCHI>
InChI=1S/C20H22N2O/c1-15(16-8-4-3-5-9-16)22(2)20(23)13-12-17-14-21-19-11-7-6-10-18(17)19/h3-11,14-15,21H,12-13H2,1-2H3

> <PUBCHEM_IUPAC_INCHIKEY>
QZGGBYGXZMFSPQ-UHFFFAOYSA-N

> <PUBCHEM_XLOGP3>
3.6

> <PUBCHEM_EXACT_MASS>
306.173213

> <PUBCHEM_MOLECULAR_FORMULA>
C20H22N2O

> <PUBCHEM_MOLECULAR_WEIGHT>
306.40148

> <PUBCHEM_OPENEYE_CAN_SMILES>
CC(C1=CC=CC=C1)N(C)C(=O)CCC2=CNC3=CC=CC=C32

> <PUBCHEM_OPENEYE_ISO_SMILES>
CC(C1=CC=CC=C1)N(C)C(=O)CCC2=CNC3=CC=CC=C32

> <PUBCHEM_CACTVS_TPSA>
36.1

> <PUBCHEM_MONOISOTOPIC_WEIGHT>
306.173213

> <PUBCHEM_TOTAL_CHARGE>
0

> <PUBCHEM_HEAVY_ATOM_COUNT>
23

> <PUBCHEM_ATOM_DEF_STEREO_COUNT>
0

> <PUBCHEM_ATOM_UDEF_STEREO_COUNT>
1

> <PUBCHEM_BOND_DEF_STEREO_COUNT>
0

> <PUBCHEM_BOND_UDEF_STEREO_COUNT>
0

> <PUBCHEM_ISOTOPIC_ATOM_COUNT>
0

> <PUBCHEM_COMPONENT_COUNT>
1

> <PUBCHEM_CACTVS_TAUTO_COUNT>
1

> <PUBCHEM_COORDINATE_TYPE>
1
5
255

> <PUBCHEM_BONDANNOTATIONS>
10  17  8
10  18  8
11  16  8
15  19  8
16  20  8
17  21  8
18  22  8
19  20  8
21  23  8
22  23  8
3  11  8
3  13  8
4  12  3
7  13  8
7  8  8
8  11  8
8  15  8

$$$$
51191694
  -OEChem-11301218002D

 50 54  0     0  0  0  0  0  0999 V2000
    4.9575    0.7859    0.0000 O   0  0  0  0  0  0  0  0  0  0  0  0
    6.1822   -0.4388    0.0000 N   0  0  0  0  0  0  0  0  0  0  0  0
    9.2906    2.1519    0.0000 N   0  0  0  0  0  0  0  0  0  0  0  0
    3.6730   -0.4043    0.0000 C   0  0  0  0  0  0  0  0  0  0  0  0
    4.5092   -1.8527    0.0000 C   0  0  0  0  0  0  0  0  0  0  0  0
    2.8368   -1.8527    0.0000 C   0  0  0  0  0  0  0  0  0  0  0  0
    2.9819   -2.2878    0.0000 C   0  0  0  0  0  0  0  0  0  0  0  0
    4.5092   -0.8871    0.0000 C   0  0  0  0  0  0  0  0  0  0  0  0
    3.6730   -2.1554    0.0000 C   0  0  0  0  0  0  0  0  0  0  0  0
    2.8368   -0.8871    0.0000 C   0  0  0  0  0  0  0  0  0  0  0  0
    3.8876   -2.7646    0.0000 C   0  0  0  0  0  0  0  0  0  0  0  0
    2.9819   -1.2425    0.0000 C   0  0  0  0  0  0  0  0  0  0  0  0
    2.0000   -2.3354    0.0000 C   0  0  0  0  0  0  0  0  0  0  0  0
    5.2163   -0.1800    0.0000 C   0  0  0  0  0  0  0  0  0  0  0  0
    6.8893    0.2683    0.0000 C   0  0  0  0  0  0  0  0  0  0  0  0
    7.8552    0.0095    0.0000 C   0  0  0  0  0  0  0  0  0  0  0  0
    8.5624    0.7166    0.0000 C   0  0  0  0  0  0  0  0  0  0  0  0
    9.5440    0.5602    0.0000 C   0  0  0  0  0  0  0  0  0  0  0  0
    8.4060    1.6983    0.0000 C   0  0  0  0  0  0  0  0  0  0  0  0
    9.9965    1.4520    0.0000 C   0  0  0  0  0  0  0  0  0  0  0  0
   10.0901   -0.2775    0.0000 C   0  0  0  0  0  0  0  0  0  0  0  0
   10.9950    1.5061    0.0000 C   0  0  0  0  0  0  0  0  0  0  0  0
   11.0887   -0.2235    0.0000 C   0  0  0  0  0  0  0  0  0  0  0  0
   11.5411    0.6683    0.0000 C   0  0  0  0  0  0  0  0  0  0  0  0
    3.6730    0.2157    0.0000 H   0  0  0  0  0  0  0  0  0  0  0  0
    5.1016   -2.0354    0.0000 H   0  0  0  0  0  0  0  0  0  0  0  0
    2.8478   -2.8931    0.0000 H   0  0  0  0  0  0  0  0  0  0  0  0
    2.8912   -2.4703    0.0000 H   0  0  0  0  0  0  0  0  0  0  0  0
    5.0820   -1.1244    0.0000 H   0  0  0  0  0  0  0  0  0  0  0  0
    3.5782   -3.3018    0.0000 H   0  0  0  0  0  0  0  0  0  0  0  0
    4.4127   -3.0941    0.0000 H   0  0  0  0  0  0  0  0  0  0  0  0
    2.6383   -0.7264    0.0000 H   0  0  0  0  0  0  0  0  0  0  0  0
    2.3885   -1.4220    0.0000 H   0  0  0  0  0  0  0  0  0  0  0  0
    2.6247   -0.3045    0.0000 H   0  0  0  0  0  0  0  0  0  0  0  0
    2.2262   -0.9948    0.0000 H   0  0  0  0  0  0  0  0  0  0  0  0
    3.3030   -2.6530    0.0000 H   0  0  0  0  0  0  0  0  0  0  0  0
    4.0430   -2.6530    0.0000 H   0  0  0  0  0  0  0  0  0  0  0  0
    1.5188   -1.9445    0.0000 H   0  0  0  0  0  0  0  0  0  0  0  0
    1.8068   -2.9246    0.0000 H   0  0  0  0  0  0  0  0  0  0  0  0
    6.3427   -1.0377    0.0000 H   0  0  0  0  0  0  0  0  0  0  0  0
    7.1513    0.8302    0.0000 H   0  0  0  0  0  0  0  0  0  0  0  0
    6.3814    0.6239    0.0000 H   0  0  0  0  0  0  0  0  0  0  0  0
    7.5932   -0.5525    0.0000 H   0  0  0  0  0  0  0  0  0  0  0  0
    8.3631   -0.3462    0.0000 H   0  0  0  0  0  0  0  0  0  0  0  0
    7.8531    1.9788    0.0000 H   0  0  0  0  0  0  0  0  0  0  0  0
    9.3854    2.7646    0.0000 H   0  0  0  0  0  0  0  0  0  0  0  0
    9.8096   -0.8304    0.0000 H   0  0  0  0  0  0  0  0  0  0  0  0
   11.2756    2.0590    0.0000 H   0  0  0  0  0  0  0  0  0  0  0  0
   11.4273   -0.7428    0.0000 H   0  0  0  0  0  0  0  0  0  0  0  0
   12.1602    0.7019    0.0000 H   0  0  0  0  0  0  0  0  0  0  0  0
  1 14  2  0  0  0  0
  2 14  1  0  0  0  0
  2 15  1  0  0  0  0
  2 40  1  0  0  0  0
  3 19  1  0  0  0  0
  3 20  1  0  0  0  0
  3 46  1  0  0  0  0
  4  8  1  0  0  0  0
  4 10  1  0  0  0  0
  4 12  1  0  0  0  0
  4 25  1  0  0  0  0
  5  8  1  0  0  0  0
  5  9  1  0  0  0  0
  5 11  1  0  0  0  0
  5 26  1  0  0  0  0
  6  9  1  0  0  0  0
  6 10  1  0  0  0  0
  6 13  1  0  0  0  0
  6 28  1  0  0  0  0
  7 11  1  0  0  0  0
  7 12  1  0  0  0  0
  7 13  1  0  0  0  0
  7 27  1  0  0  0  0
  8 14  1  0  0  0  0
  8 29  1  0  0  0  0
  9 36  1  0  0  0  0
  9 37  1  0  0  0  0
 10 34  1  0  0  0  0
 10 35  1  0  0  0  0
 11 30  1  0  0  0  0
 11 31  1  0  0  0  0
 12 32  1  0  0  0  0
 12 33  1  0  0  0  0
 13 38  1  0  0  0  0
 13 39  1  0  0  0  0
 15 16  1  0  0  0  0
 15 41  1  0  0  0  0
 15 42  1  0  0  0  0
 16 17  1  0  0  0  0
 16 43  1  0  0  0  0
 16 44  1  0  0  0  0
 17 18  1  0  0  0  0
 17 19  2  0  0  0  0
 18 20  1  0  0  0  0
 18 21  2  0  0  0  0
 19 45  1  0  0  0  0
 20 22  2  0  0  0  0
 21 23  1  0  0  0  0
 21 47  1  0  0  0  0
 22 24  1  0  0  0  0
 22 48  1  0  0  0  0
 23 24  2  0  0  0  0
 23 49  1  0  0  0  0
 24 50  1  0  0  0  0
M  END
> <PUBCHEM_COMPOUND_CID>
51191694

> <PUBCHEM_COMPOUND_CANONICALIZED>
1

> <PUBCHEM_CACTVS_COMPLEXITY>
462

> <PUBCHEM_CACTVS_HBOND_ACCEPTOR>
1

> <PUBCHEM_CACTVS_HBOND_DONOR>
2

> <PUBCHEM_CACTVS_ROTATABLE_BOND>
4

> <PUBCHEM_CACTVS_SUBSKEYS>
AAADceB7IAAAAAAAAAAAAAAAAAAAAWAAAAAwYMGDAAAAAFgB8AAAHgAQAAAADQjBngQ8wPLJkACoAzV3VACCgCAxAiAI2aE4ZJgIIPLAkZGEIAhglgDIyAcYiMCOgAAAAAACAACAAAQAACQAAAAAAAAAAA==

> <PUBCHEM_IUPAC_OPENEYE_NAME>
N-[2-(1H-indol-3-yl)ethyl]adamantane-2-carboxamide

> <PUBCHEM_IUPAC_CAS_NAME>
N-[2-(1H-indol-3-yl)ethyl]-2-adamantanecarboxamide

> <PUBCHEM_IUPAC_NAME>
N-[2-(1H-indol-3-yl)ethyl]adamantane-2-carboxamide

> <PUBCHEM_IUPAC_SYSTEMATIC_NAME>
N-[2-(1H-indol-3-yl)ethyl]adamantane-2-carboxamide

> <PUBCHEM_IUPAC_TRADITIONAL_NAME>
N-[2-(1H-indol-3-yl)ethyl]adamantane-2-carboxamide

> <PUBCHEM_IUPAC_INCHI>
InChI=1S/C21H26N2O/c24-21(20-16-8-13-7-14(10-16)11-17(20)9-13)22-6-5-15-12-23-19-4-2-1-3-18(15)19/h1-4,12-14,16-17,20,23H,5-11H2,(H,22,24)

> <PUBCHEM_IUPAC_INCHIKEY>
QPKRJUZBKGJCER-UHFFFAOYSA-N

> <PUBCHEM_XLOGP3>
4.8

> <PUBCHEM_EXACT_MASS>
322.204513

> <PUBCHEM_MOLECULAR_FORMULA>
C21H26N2O

> <PUBCHEM_MOLECULAR_WEIGHT>
322.44394

> <PUBCHEM_OPENEYE_CAN_SMILES>
C1C2CC3CC1CC(C2)C3C(=O)NCCC4=CNC5=CC=CC=C54

> <PUBCHEM_OPENEYE_ISO_SMILES>
C1C2CC3CC1CC(C2)C3C(=O)NCCC4=CNC5=CC=CC=C54

> <PUBCHEM_CACTVS_TPSA>
44.9

> <PUBCHEM_MONOISOTOPIC_WEIGHT>
322.204513

> <PUBCHEM_TOTAL_CHARGE>
0

> <PUBCHEM_HEAVY_ATOM_COUNT>
24

> <PUBCHEM_ATOM_DEF_STEREO_COUNT>
0

> <PUBCHEM_ATOM_UDEF_STEREO_COUNT>
0

> <PUBCHEM_BOND_DEF_STEREO_COUNT>
0

> <PUBCHEM_BOND_UDEF_STEREO_COUNT>
0

> <PUBCHEM_ISOTOPIC_ATOM_COUNT>
0

> <PUBCHEM_COMPONENT_COUNT>
1

> <PUBCHEM_CACTVS_TAUTO_COUNT>
2

> <PUBCHEM_COORDINATE_TYPE>
1
5
255

> <PUBCHEM_BONDANNOTATIONS>
17  18  8
17  19  8
18  20  8
18  21  8
20  22  8
21  23  8
22  24  8
23  24  8
3  19  8
3  20  8

$$$$
51191872
  -OEChem-11301218002D

 46 49  0     0  0  0  0  0  0999 V2000
    4.9575    1.1975    0.0000 O   0  0  0  0  0  0  0  0  0  0  0  0
    6.1822   -0.0272    0.0000 N   0  0  0  0  0  0  0  0  0  0  0  0
    3.6730    0.0073    0.0000 C   0  0  0  0  0  0  0  0  0  0  0  0
    4.5092   -1.4410    0.0000 C   0  0  0  0  0  0  0  0  0  0  0  0
    2.8368   -1.4410    0.0000 C   0  0  0  0  0  0  0  0  0  0  0  0
    2.9819   -1.8761    0.0000 C   0  0  0  0  0  0  0  0  0  0  0  0
    4.5092   -0.4755    0.0000 C   0  0  0  0  0  0  0  0  0  0  0  0
    3.6730   -1.7438    0.0000 C   0  0  0  0  0  0  0  0  0  0  0  0
    2.8368   -0.4755    0.0000 C   0  0  0  0  0  0  0  0  0  0  0  0
    3.8876   -2.3529    0.0000 C   0  0  0  0  0  0  0  0  0  0  0  0
    2.9819   -0.8308    0.0000 C   0  0  0  0  0  0  0  0  0  0  0  0
    2.0000   -1.9238    0.0000 C   0  0  0  0  0  0  0  0  0  0  0  0
    5.2163    0.2316    0.0000 C   0  0  0  0  0  0  0  0  0  0  0  0
    6.8893    0.6799    0.0000 C   0  0  0  0  0  0  0  0  0  0  0  0
    7.8552    0.4211    0.0000 C   0  0  0  0  0  0  0  0  0  0  0  0
    6.6305    1.6458    0.0000 C   0  0  0  0  0  0  0  0  0  0  0  0
    8.1141   -0.5448    0.0000 C   0  0  0  0  0  0  0  0  0  0  0  0
    8.5624    1.1282    0.0000 C   0  0  0  0  0  0  0  0  0  0  0  0
    7.3376    2.3529    0.0000 C   0  0  0  0  0  0  0  0  0  0  0  0
    8.3035    2.0941    0.0000 C   0  0  0  0  0  0  0  0  0  0  0  0
    9.0800   -0.8037    0.0000 C   0  0  0  0  0  0  0  0  0  0  0  0
    3.6730    0.6273    0.0000 H   0  0  0  0  0  0  0  0  0  0  0  0
    5.1016   -1.6238    0.0000 H   0  0  0  0  0  0  0  0  0  0  0  0
    2.8478   -2.4815    0.0000 H   0  0  0  0  0  0  0  0  0  0  0  0
    2.8912   -2.0586    0.0000 H   0  0  0  0  0  0  0  0  0  0  0  0
    5.0820   -0.7128    0.0000 H   0  0  0  0  0  0  0  0  0  0  0  0
    2.6383   -0.3148    0.0000 H   0  0  0  0  0  0  0  0  0  0  0  0
    2.3885   -1.0104    0.0000 H   0  0  0  0  0  0  0  0  0  0  0  0
    3.5782   -2.8902    0.0000 H   0  0  0  0  0  0  0  0  0  0  0  0
    4.4127   -2.6825    0.0000 H   0  0  0  0  0  0  0  0  0  0  0  0
    2.6247    0.1071    0.0000 H   0  0  0  0  0  0  0  0  0  0  0  0
    2.2262   -0.5832    0.0000 H   0  0  0  0  0  0  0  0  0  0  0  0
    3.3030   -2.2413    0.0000 H   0  0  0  0  0  0  0  0  0  0  0  0
    4.0430   -2.2413    0.0000 H   0  0  0  0  0  0  0  0  0  0  0  0
    1.5188   -1.5329    0.0000 H   0  0  0  0  0  0  0  0  0  0  0  0
    1.8068   -2.5130    0.0000 H   0  0  0  0  0  0  0  0  0  0  0  0
    6.3427   -0.6261    0.0000 H   0  0  0  0  0  0  0  0  0  0  0  0
    6.0316    1.8063    0.0000 H   0  0  0  0  0  0  0  0  0  0  0  0
    7.4964   -0.5989    0.0000 H   0  0  0  0  0  0  0  0  0  0  0  0
    8.0600   -1.1625    0.0000 H   0  0  0  0  0  0  0  0  0  0  0  0
    9.1612    0.9677    0.0000 H   0  0  0  0  0  0  0  0  0  0  0  0
    7.1771    2.9518    0.0000 H   0  0  0  0  0  0  0  0  0  0  0  0
    8.7419    2.5325    0.0000 H   0  0  0  0  0  0  0  0  0  0  0  0
    8.9195   -1.4025    0.0000 H   0  0  0  0  0  0  0  0  0  0  0  0
    9.6789   -0.9641    0.0000 H   0  0  0  0  0  0  0  0  0  0  0  0
    9.2405   -0.2048    0.0000 H   0  0  0  0  0  0  0  0  0  0  0  0
  1 13  2  0  0  0  0
  2 13  1  0  0  0  0
  2 14  1  0  0  0  0
  2 37  1  0  0  0  0
  3  7  1  0  0  0  0
  3  9  1  0  0  0  0
  3 11  1  0  0  0  0
  3 22  1  0  0  0  0
  4  7  1  0  0  0  0
  4  8  1  0  0  0  0
  4 10  1  0  0  0  0
  4 23  1  0  0  0  0
  5  8  1  0  0  0  0
  5  9  1  0  0  0  0
  5 12  1  0  0  0  0
  5 25  1  0  0  0  0
  6 10  1  0  0  0  0
  6 11  1  0  0  0  0
  6 12  1  0  0  0  0
  6 24  1  0  0  0  0
  7 13  1  0  0  0  0
  7 26  1  0  0  0  0
  8 33  1  0  0  0  0
  8 34  1  0  0  0  0
  9 31  1  0  0  0  0
  9 32  1  0  0  0  0
 10 29  1  0  0  0  0
 10 30  1  0  0  0  0
 11 27  1  0  0  0  0
 11 28  1  0  0  0  0
 12 35  1  0  0  0  0
 12 36  1  0  0  0  0
 14 15  1  0  0  0  0
 14 16  2  0  0  0  0
 15 17  1  0  0  0  0
 15 18  2  0  0  0  0
 16 19  1  0  0  0  0
 16 38  1  0  0  0  0
 17 21  1  0  0  0  0
 17 39  1  0  0  0  0
 17 40  1  0  0  0  0
 18 20  1  0  0  0  0
 18 41  1  0  0  0  0
 19 20  2  0  0  0  0
 19 42  1  0  0  0  0
 20 43  1  0  0  0  0
 21 44  1  0  0  0  0
 21 45  1  0  0  0  0
 21 46  1  0  0  0  0
M  END
> <PUBCHEM_COMPOUND_CID>
51191872

> <PUBCHEM_COMPOUND_CANONICALIZED>
1

> <PUBCHEM_CACTVS_COMPLEXITY>
376

> <PUBCHEM_CACTVS_HBOND_ACCEPTOR>
1

> <PUBCHEM_CACTVS_HBOND_DONOR>
1

> <PUBCHEM_CACTVS_ROTATABLE_BOND>
3

> <PUBCHEM_CACTVS_SUBSKEYS>
AAADceB6IAAAAAAAAAAAAAAAAAAAAAAAAAAwYMGDAAAAAAABAAAAHgAQAAAADQiBmAAywILAAACIAiVSUACCAAAhAgAIiAEAZIgIIDLAkZGEIAhglADIyAcYiMCOgAAAAAACAACAAAQAACQAAAAAAAAAAA==

> <PUBCHEM_IUPAC_OPENEYE_NAME>
N-(2-ethylphenyl)adamantane-2-carboxamide

> <PUBCHEM_IUPAC_CAS_NAME>
N-(2-ethylphenyl)-2-adamantanecarboxamide

> <PUBCHEM_IUPAC_NAME>
N-(2-ethylphenyl)adamantane-2-carboxamide

> <PUBCHEM_IUPAC_SYSTEMATIC_NAME>
N-(2-ethylphenyl)adamantane-2-carboxamide

> <PUBCHEM_IUPAC_TRADITIONAL_NAME>
N-(2-ethylphenyl)adamantane-2-carboxamide

> <PUBCHEM_IUPAC_INCHI>
InChI=1S/C19H25NO/c1-2-14-5-3-4-6-17(14)20-19(21)18-15-8-12-7-13(10-15)11-16(18)9-12/h3-6,12-13,15-16,18H,2,7-11H2,1H3,(H,20,21)

> <PUBCHEM_IUPAC_INCHIKEY>
DYQPKGZSTQXAKP-UHFFFAOYSA-N

> <PUBCHEM_XLOGP3>
4.4

> <PUBCHEM_EXACT_MASS>
283.193614

> <PUBCHEM_MOLECULAR_FORMULA>
C19H25NO

> <PUBCHEM_MOLECULAR_WEIGHT>
283.4079

> <PUBCHEM_OPENEYE_CAN_SMILES>
CCC1=CC=CC=C1NC(=O)C2C3CC4CC(C3)CC2C4

> <PUBCHEM_OPENEYE_ISO_SMILES>
CCC1=CC=CC=C1NC(=O)C2C3CC4CC(C3)CC2C4

> <PUBCHEM_CACTVS_TPSA>
29.1

> <PUBCHEM_MONOISOTOPIC_WEIGHT>
283.193614

> <PUBCHEM_TOTAL_CHARGE>
0

> <PUBCHEM_HEAVY_ATOM_COUNT>
21

> <PUBCHEM_ATOM_DEF_STEREO_COUNT>
0

> <PUBCHEM_ATOM_UDEF_STEREO_COUNT>
0

> <PUBCHEM_BOND_DEF_STEREO_COUNT>
0

> <PUBCHEM_BOND_UDEF_STEREO_COUNT>
0

> <PUBCHEM_ISOTOPIC_ATOM_COUNT>
0

> <PUBCHEM_COMPONENT_COUNT>
1

> <PUBCHEM_CACTVS_TAUTO_COUNT>
3

> <PUBCHEM_COORDINATE_TYPE>
1
5
255

> <PUBCHEM_BONDANNOTATIONS>
14  15  8
14  16  8
15  18  8
16  19  8
18  20  8
19  20  8

$$$$
51193208
  -OEChem-11301218002D

 40 41  0     0  0  0  0  0  0999 V2000
    5.4641    0.7927    0.0000 O   0  0  0  0  0  0  0  0  0  0  0  0
    4.5981   -0.7073    0.0000 N   0  0  0  0  0  0  0  0  0  0  0  0
    3.7320   -0.2073    0.0000 C   0  0  0  0  0  0  0  0  0  0  0  0
    2.8660    0.2927    0.0000 C   0  0  0  0  0  0  0  0  0  0  0  0
    3.2320   -1.0734    0.0000 C   0  0  0  0  0  0  0  0  0  0  0  0
    4.2320    0.6587    0.0000 C   0  0  0  0  0  0  0  0  0  0  0  0
    2.0000   -0.2073    0.0000 C   0  0  0  0  0  0  0  0  0  0  0  0
    5.4641   -0.2073    0.0000 C   0  0  0  0  0  0  0  0  0  0  0  0
    6.3301   -0.7073    0.0000 C   0  0  0  0  0  0  0  0  0  0  0  0
    7.1962   -0.2073    0.0000 C   0  0  0  0  0  0  0  0  0  0  0  0
    8.0622   -0.7073    0.0000 C   0  0  0  0  0  0  0  0  0  0  0  0
    8.9282   -0.2073    0.0000 C   0  0  0  0  0  0  0  0  0  0  0  0
    7.1962    0.7927    0.0000 C   0  0  0  0  0  0  0  0  0  0  0  0
    8.9282    0.7927    0.0000 C   0  0  0  0  0  0  0  0  0  0  0  0
    8.0622    1.2927    0.0000 C   0  0  0  0  0  0  0  0  0  0  0  0
    9.8222   -0.7420    0.0000 C   0  0  0  0  0  0  0  0  0  0  0  0
    9.8222    1.3273    0.0000 C   0  0  0  0  0  0  0  0  0  0  0  0
   10.7282   -0.2281    0.0000 C   0  0  0  0  0  0  0  0  0  0  0  0
   10.7282    0.8135    0.0000 C   0  0  0  0  0  0  0  0  0  0  0  0
    3.2646    0.7676    0.0000 H   0  0  0  0  0  0  0  0  0  0  0  0
    2.4675    0.7676    0.0000 H   0  0  0  0  0  0  0  0  0  0  0  0
    4.5981   -1.3273    0.0000 H   0  0  0  0  0  0  0  0  0  0  0  0
    2.6951   -0.7634    0.0000 H   0  0  0  0  0  0  0  0  0  0  0  0
    2.9220   -1.6103    0.0000 H   0  0  0  0  0  0  0  0  0  0  0  0
    3.7690   -1.3834    0.0000 H   0  0  0  0  0  0  0  0  0  0  0  0
    4.7690    0.3487    0.0000 H   0  0  0  0  0  0  0  0  0  0  0  0
    4.5420    1.1956    0.0000 H   0  0  0  0  0  0  0  0  0  0  0  0
    3.6951    0.9687    0.0000 H   0  0  0  0  0  0  0  0  0  0  0  0
    1.6900    0.3296    0.0000 H   0  0  0  0  0  0  0  0  0  0  0  0
    1.4631   -0.5173    0.0000 H   0  0  0  0  0  0  0  0  0  0  0  0
    2.3100   -0.7443    0.0000 H   0  0  0  0  0  0  0  0  0  0  0  0
    5.9316   -1.1823    0.0000 H   0  0  0  0  0  0  0  0  0  0  0  0
    6.7287   -1.1823    0.0000 H   0  0  0  0  0  0  0  0  0  0  0  0
    8.0622   -1.3273    0.0000 H   0  0  0  0  0  0  0  0  0  0  0  0
    6.6592    1.1027    0.0000 H   0  0  0  0  0  0  0  0  0  0  0  0
    8.0622    1.9127    0.0000 H   0  0  0  0  0  0  0  0  0  0  0  0
    9.8150   -1.3620    0.0000 H   0  0  0  0  0  0  0  0  0  0  0  0
    9.8150    1.9473    0.0000 H   0  0  0  0  0  0  0  0  0  0  0  0
   11.2639   -0.5402    0.0000 H   0  0  0  0  0  0  0  0  0  0  0  0
   11.2639    1.1256    0.0000 H   0  0  0  0  0  0  0  0  0  0  0  0
  1  8  2  0  0  0  0
  2  3  1  0  0  0  0
  2  8  1  0  0  0  0
  2 22  1  0  0  0  0
  3  4  1  0  0  0  0
  3  5  1  0  0  0  0
  3  6  1  0  0  0  0
  4  7  1  0  0  0  0
  4 20  1  0  0  0  0
  4 21  1  0  0  0  0
  5 23  1  0  0  0  0
  5 24  1  0  0  0  0
  5 25  1  0  0  0  0
  6 26  1  0  0  0  0
  6 27  1  0  0  0  0
  6 28  1  0  0  0  0
  7 29  1  0  0  0  0
  7 30  1  0  0  0  0
  7 31  1  0  0  0  0
  8  9  1  0  0  0  0
  9 10  1  0  0  0  0
  9 32  1  0  0  0  0
  9 33  1  0  0  0  0
 10 11  2  0  0  0  0
 10 13  1  0  0  0  0
 11 12  1  0  0  0  0
 11 34  1  0  0  0  0
 12 14  1  0  0  0  0
 12 16  2  0  0  0  0
 13 15  2  0  0  0  0
 13 35  1  0  0  0  0
 14 15  1  0  0  0  0
 14 17  2  0  0  0  0
 15 36  1  0  0  0  0
 16 18  1  0  0  0  0
 16 37  1  0  0  0  0
 17 19  1  0  0  0  0
 17 38  1  0  0  0  0
 18 19  2  0  0  0  0
 18 39  1  0  0  0  0
 19 40  1  0  0  0  0
M  END
> <PUBCHEM_COMPOUND_CID>
51193208

> <PUBCHEM_COMPOUND_CANONICALIZED>
1

> <PUBCHEM_CACTVS_COMPLEXITY>
310

> <PUBCHEM_CACTVS_HBOND_ACCEPTOR>
1

> <PUBCHEM_CACTVS_HBOND_DONOR>
1

> <PUBCHEM_CACTVS_ROTATABLE_BOND>
4

> <PUBCHEM_CACTVS_SUBSKEYS>
AAADceB6IAAAAAAAAAAAAAAAAAAAAAAAAAAwYAAAAAAAAADBUAAAHgAQAAAADIiBmAAyAMLAAACIAiFSEAACAAAgAAAIiAEAAIgIIDKAlRGEIAAglACIiAcYiMCOwAACAAAQAACAAAQAACAAAAAAAAAAAA==

> <PUBCHEM_IUPAC_OPENEYE_NAME>
N-(1,1-dimethylpropyl)-2-(2-naphthyl)acetamide

> <PUBCHEM_IUPAC_CAS_NAME>
N-(2-methylbutan-2-yl)-2-(2-naphthalenyl)acetamide

> <PUBCHEM_IUPAC_NAME>
N-(2-methylbutan-2-yl)-2-naphthalen-2-ylacetamide

> <PUBCHEM_IUPAC_SYSTEMATIC_NAME>
N-(2-methylbutan-2-yl)-2-naphthalen-2-yl-ethanamide

> <PUBCHEM_IUPAC_TRADITIONAL_NAME>
N-tert-amyl-2-(2-naphthyl)acetamide

> <PUBCHEM_IUPAC_INCHI>
InChI=1S/C17H21NO/c1-4-17(2,3)18-16(19)12-13-9-10-14-7-5-6-8-15(14)11-13/h5-11H,4,12H2,1-3H3,(H,18,19)

> <PUBCHEM_IUPAC_INCHIKEY>
HQUSBCMXXGPDFS-UHFFFAOYSA-N

> <PUBCHEM_XLOGP3>
4.1

> <PUBCHEM_EXACT_MASS>
255.162314

> <PUBCHEM_MOLECULAR_FORMULA>
C17H21NO

> <PUBCHEM_MOLECULAR_WEIGHT>
255.35474

> <PUBCHEM_OPENEYE_CAN_SMILES>
CCC(C)(C)NC(=O)CC1=CC2=CC=CC=C2C=C1

> <PUBCHEM_OPENEYE_ISO_SMILES>
CCC(C)(C)NC(=O)CC1=CC2=CC=CC=C2C=C1

> <PUBCHEM_CACTVS_TPSA>
29.1

> <PUBCHEM_MONOISOTOPIC_WEIGHT>
255.162314

> <PUBCHEM_TOTAL_CHARGE>
0

> <PUBCHEM_HEAVY_ATOM_COUNT>
19

> <PUBCHEM_ATOM_DEF_STEREO_COUNT>
0

> <PUBCHEM_ATOM_UDEF_STEREO_COUNT>
0

> <PUBCHEM_BOND_DEF_STEREO_COUNT>
0

> <PUBCHEM_BOND_UDEF_STEREO_COUNT>
0

> <PUBCHEM_ISOTOPIC_ATOM_COUNT>
0

> <PUBCHEM_COMPONENT_COUNT>
1

> <PUBCHEM_CACTVS_TAUTO_COUNT>
2

> <PUBCHEM_COORDINATE_TYPE>
1
5
255

> <PUBCHEM_BONDANNOTATIONS>
10  11  8
10  13  8
11  12  8
12  14  8
12  16  8
13  15  8
14  15  8
14  17  8
16  18  8
17  19  8
18  19  8

$$$$
