43949267
  -OEChem-12041212032D

 33 35  0     0  0  0  0  0  0999 V2000
    4.9889    0.2264    0.0000 S   0  0  0  0  0  0  0  0  0  0  0  0
    4.6783   -2.3336    0.0000 N   0  0  0  0  0  0  0  0  0  0  0  0
    3.7320   -2.0289    0.0000 C   0  0  0  0  0  0  0  0  0  0  0  0
    3.7320   -1.0289    0.0000 C   0  0  0  0  0  0  0  0  0  0  0  0
    4.6783   -0.7242    0.0000 C   0  0  0  0  0  0  0  0  0  0  0  0
    5.2619   -1.5289    0.0000 C   0  0  0  0  0  0  0  0  0  0  0  0
    2.8660   -2.5289    0.0000 C   0  0  0  0  0  0  0  0  0  0  0  0
    2.8660   -0.5289    0.0000 C   0  0  0  0  0  0  0  0  0  0  0  0
    4.9889   -3.2841    0.0000 C   0  0  0  0  0  0  0  0  0  0  0  0
    5.9674    0.4326    0.0000 C   0  0  0  0  0  0  0  0  0  0  0  0
    2.0000   -2.0289    0.0000 C   0  0  0  0  0  0  0  0  0  0  0  0
    2.0000   -1.0289    0.0000 C   0  0  0  0  0  0  0  0  0  0  0  0
    6.2781    1.3831    0.0000 C   0  0  0  0  0  0  0  0  0  0  0  0
    7.2566    1.5893    0.0000 C   0  0  0  0  0  0  0  0  0  0  0  0
    5.6103    2.1274    0.0000 C   0  0  0  0  0  0  0  0  0  0  0  0
    7.5673    2.5398    0.0000 C   0  0  0  0  0  0  0  0  0  0  0  0
    5.9209    3.0779    0.0000 C   0  0  0  0  0  0  0  0  0  0  0  0
    6.8994    3.2841    0.0000 C   0  0  0  0  0  0  0  0  0  0  0  0
    5.8819   -1.5289    0.0000 H   0  0  0  0  0  0  0  0  0  0  0  0
    2.8660   -3.1489    0.0000 H   0  0  0  0  0  0  0  0  0  0  0  0
    2.8660    0.0911    0.0000 H   0  0  0  0  0  0  0  0  0  0  0  0
    4.3996   -3.4768    0.0000 H   0  0  0  0  0  0  0  0  0  0  0  0
    5.1815   -3.8735    0.0000 H   0  0  0  0  0  0  0  0  0  0  0  0
    5.5783   -3.0915    0.0000 H   0  0  0  0  0  0  0  0  0  0  0  0
    5.9880   -0.1871    0.0000 H   0  0  0  0  0  0  0  0  0  0  0  0
    6.5812    0.3452    0.0000 H   0  0  0  0  0  0  0  0  0  0  0  0
    1.4631   -2.3389    0.0000 H   0  0  0  0  0  0  0  0  0  0  0  0
    1.4631   -0.7189    0.0000 H   0  0  0  0  0  0  0  0  0  0  0  0
    7.6707    1.1278    0.0000 H   0  0  0  0  0  0  0  0  0  0  0  0
    5.0036    1.9996    0.0000 H   0  0  0  0  0  0  0  0  0  0  0  0
    8.1739    2.6677    0.0000 H   0  0  0  0  0  0  0  0  0  0  0  0
    5.5069    3.5394    0.0000 H   0  0  0  0  0  0  0  0  0  0  0  0
    7.0920    3.8735    0.0000 H   0  0  0  0  0  0  0  0  0  0  0  0
  1  5  1  0  0  0  0
  1 10  1  0  0  0  0
  2  3  1  0  0  0  0
  2  6  1  0  0  0  0
  2  9  1  0  0  0  0
  3  4  1  0  0  0  0
  3  7  2  0  0  0  0
  4  5  1  0  0  0  0
  4  8  2  0  0  0  0
  5  6  2  0  0  0  0
  6 19  1  0  0  0  0
  7 11  1  0  0  0  0
  7 20  1  0  0  0  0
  8 12  1  0  0  0  0
  8 21  1  0  0  0  0
  9 22  1  0  0  0  0
  9 23  1  0  0  0  0
  9 24  1  0  0  0  0
 10 13  1  0  0  0  0
 10 25  1  0  0  0  0
 10 26  1  0  0  0  0
 11 12  2  0  0  0  0
 11 27  1  0  0  0  0
 12 28  1  0  0  0  0
 13 14  2  0  0  0  0
 13 15  1  0  0  0  0
 14 16  1  0  0  0  0
 14 29  1  0  0  0  0
 15 17  2  0  0  0  0
 15 30  1  0  0  0  0
 16 18  2  0  0  0  0
 16 31  1  0  0  0  0
 17 18  1  0  0  0  0
 17 32  1  0  0  0  0
 18 33  1  0  0  0  0
M  END
> <PUBCHEM_COMPOUND_CID>
43949267

> <PUBCHEM_COMPOUND_CANONICALIZED>
1

> <PUBCHEM_CACTVS_COMPLEXITY>
262

> <PUBCHEM_CACTVS_HBOND_ACCEPTOR>
1

> <PUBCHEM_CACTVS_HBOND_DONOR>
0

> <PUBCHEM_CACTVS_ROTATABLE_BOND>
3

> <PUBCHEM_CACTVS_SUBSKEYS>
AAADccB6AABAAAAAAAAAAAAAAAAAAWAAAAAwYAAAAAAAAFgB9AAAHAQAAAAADAjFXgS+wfMMEAigAzRnRACCgCAxCjAI2Dw4ZJgIIOLgkZGEIAxggADoyAcQgIAOAAAAAAACAAAAAAAAAAQAAAAAAAAAAA==

> <PUBCHEM_IUPAC_OPENEYE_NAME>
3-benzylsulfanyl-1-methyl-indole

> <PUBCHEM_IUPAC_CAS_NAME>
1-methyl-3-(phenylmethylthio)indole

> <PUBCHEM_IUPAC_NAME>
3-benzylsulfanyl-1-methylindole

> <PUBCHEM_IUPAC_SYSTEMATIC_NAME>
1-methyl-3-(phenylmethylsulfanyl)indole

> <PUBCHEM_IUPAC_TRADITIONAL_NAME>
3-(benzylthio)-1-methyl-indole

> <PUBCHEM_IUPAC_INCHI>
InChI=1S/C16H15NS/c1-17-11-16(14-9-5-6-10-15(14)17)18-12-13-7-3-2-4-8-13/h2-11H,12H2,1H3

> <PUBCHEM_IUPAC_INCHIKEY>
VNIAASSCQAUHEC-UHFFFAOYSA-N

> <PUBCHEM_XLOGP3>
4.3

> <PUBCHEM_EXACT_MASS>
253.09252

> <PUBCHEM_MOLECULAR_FORMULA>
C16H15NS

> <PUBCHEM_MOLECULAR_WEIGHT>
253.362

> <PUBCHEM_OPENEYE_CAN_SMILES>
CN1C=C(C2=CC=CC=C21)SCC3=CC=CC=C3

> <PUBCHEM_OPENEYE_ISO_SMILES>
CN1C=C(C2=CC=CC=C21)SCC3=CC=CC=C3

> <PUBCHEM_CACTVS_TPSA>
30.2

> <PUBCHEM_MONOISOTOPIC_WEIGHT>
253.09252

> <PUBCHEM_TOTAL_CHARGE>
0

> <PUBCHEM_HEAVY_ATOM_COUNT>
18

> <PUBCHEM_ATOM_DEF_STEREO_COUNT>
0

> <PUBCHEM_ATOM_UDEF_STEREO_COUNT>
0

> <PUBCHEM_BOND_DEF_STEREO_COUNT>
0

> <PUBCHEM_BOND_UDEF_STEREO_COUNT>
0

> <PUBCHEM_ISOTOPIC_ATOM_COUNT>
0

> <PUBCHEM_COMPONENT_COUNT>
1

> <PUBCHEM_CACTVS_TAUTO_COUNT>
1

> <PUBCHEM_COORDINATE_TYPE>
1
5
255

> <PUBCHEM_BONDANNOTATIONS>
11  12  8
13  14  8
13  15  8
14  16  8
15  17  8
16  18  8
17  18  8
2  3  8
2  6  8
3  4  8
3  7  8
4  5  8
4  8  8
5  6  8
7  11  8
8  12  8

$$$$
43949393
  -OEChem-12041212032D

 33 35  0     0  0  0  0  0  0999 V2000
    4.9889    0.0458    0.0000 S   0  0  0  0  0  0  0  0  0  0  0  0
    4.6783   -2.5142    0.0000 N   0  0  0  0  0  0  0  0  0  0  0  0
    3.7320   -1.2095    0.0000 C   0  0  0  0  0  0  0  0  0  0  0  0
    3.7320   -2.2095    0.0000 C   0  0  0  0  0  0  0  0  0  0  0  0
    4.6783   -0.9048    0.0000 C   0  0  0  0  0  0  0  0  0  0  0  0
    5.9674    0.2520    0.0000 C   0  0  0  0  0  0  0  0  0  0  0  0
    6.2781    1.2025    0.0000 C   0  0  0  0  0  0  0  0  0  0  0  0
    5.2619   -1.7095    0.0000 C   0  0  0  0  0  0  0  0  0  0  0  0
    2.8660   -0.7095    0.0000 C   0  0  0  0  0  0  0  0  0  0  0  0
    2.8660   -2.7095    0.0000 C   0  0  0  0  0  0  0  0  0  0  0  0
    7.2566    1.4087    0.0000 C   0  0  0  0  0  0  0  0  0  0  0  0
    7.5673    2.3592    0.0000 C   0  0  0  0  0  0  0  0  0  0  0  0
    5.6103    1.9468    0.0000 C   0  0  0  0  0  0  0  0  0  0  0  0
    2.0000   -1.2095    0.0000 C   0  0  0  0  0  0  0  0  0  0  0  0
    2.0000   -2.2095    0.0000 C   0  0  0  0  0  0  0  0  0  0  0  0
    6.8994    3.1035    0.0000 C   0  0  0  0  0  0  0  0  0  0  0  0
    5.9209    2.8973    0.0000 C   0  0  0  0  0  0  0  0  0  0  0  0
    8.5458    2.5655    0.0000 C   0  0  0  0  0  0  0  0  0  0  0  0
    5.9880   -0.3677    0.0000 H   0  0  0  0  0  0  0  0  0  0  0  0
    6.5812    0.1646    0.0000 H   0  0  0  0  0  0  0  0  0  0  0  0
    4.8709   -3.1035    0.0000 H   0  0  0  0  0  0  0  0  0  0  0  0
    5.8819   -1.7095    0.0000 H   0  0  0  0  0  0  0  0  0  0  0  0
    2.8660   -0.0895    0.0000 H   0  0  0  0  0  0  0  0  0  0  0  0
    2.8660   -3.3295    0.0000 H   0  0  0  0  0  0  0  0  0  0  0  0
    7.6707    0.9473    0.0000 H   0  0  0  0  0  0  0  0  0  0  0  0
    5.0036    1.8190    0.0000 H   0  0  0  0  0  0  0  0  0  0  0  0
    1.4631   -0.8995    0.0000 H   0  0  0  0  0  0  0  0  0  0  0  0
    1.4631   -2.5195    0.0000 H   0  0  0  0  0  0  0  0  0  0  0  0
    7.0920    3.6929    0.0000 H   0  0  0  0  0  0  0  0  0  0  0  0
    5.5069    3.3588    0.0000 H   0  0  0  0  0  0  0  0  0  0  0  0
    8.6736    1.9588    0.0000 H   0  0  0  0  0  0  0  0  0  0  0  0
    9.1524    2.6933    0.0000 H   0  0  0  0  0  0  0  0  0  0  0  0
    8.4179    3.1721    0.0000 H   0  0  0  0  0  0  0  0  0  0  0  0
  1  5  1  0  0  0  0
  1  6  1  0  0  0  0
  2  4  1  0  0  0  0
  2  8  1  0  0  0  0
  2 21  1  0  0  0  0
  3  4  1  0  0  0  0
  3  5  1  0  0  0  0
  3  9  2  0  0  0  0
  4 10  2  0  0  0  0
  5  8  2  0  0  0  0
  6  7  1  0  0  0  0
  6 19  1  0  0  0  0
  6 20  1  0  0  0  0
  7 11  1  0  0  0  0
  7 13  2  0  0  0  0
  8 22  1  0  0  0  0
  9 14  1  0  0  0  0
  9 23  1  0  0  0  0
 10 15  1  0  0  0  0
 10 24  1  0  0  0  0
 11 12  2  0  0  0  0
 11 25  1  0  0  0  0
 12 16  1  0  0  0  0
 12 18  1  0  0  0  0
 13 17  1  0  0  0  0
 13 26  1  0  0  0  0
 14 15  2  0  0  0  0
 14 27  1  0  0  0  0
 15 28  1  0  0  0  0
 16 17  2  0  0  0  0
 16 29  1  0  0  0  0
 17 30  1  0  0  0  0
 18 31  1  0  0  0  0
 18 32  1  0  0  0  0
 18 33  1  0  0  0  0
M  END
> <PUBCHEM_COMPOUND_CID>
43949393

> <PUBCHEM_COMPOUND_CANONICALIZED>
1

> <PUBCHEM_CACTVS_COMPLEXITY>
268

> <PUBCHEM_CACTVS_HBOND_ACCEPTOR>
1

> <PUBCHEM_CACTVS_HBOND_DONOR>
1

> <PUBCHEM_CACTVS_ROTATABLE_BOND>
3

> <PUBCHEM_CACTVS_SUBSKEYS>
AAADccB6AABAAAAAAAAAAAAAAAAAAWAAAAAwYAAAAAAAAFgB9AAAHAQQAAAADAjFXgS+wfLJkAigAzRnRACCgCAxCjAI2bw4ZJgIIOLgkZGEIAxgkADoyAcQgMAOAAACAAACAAAAAAQAAAQAAAAAAAAAAA==

> <PUBCHEM_IUPAC_OPENEYE_NAME>
3-(m-tolylmethylsulfanyl)-1H-indole

> <PUBCHEM_IUPAC_CAS_NAME>
3-[(3-methylphenyl)methylthio]-1H-indole

> <PUBCHEM_IUPAC_NAME>
3-[(3-methylphenyl)methylsulfanyl]-1H-indole

> <PUBCHEM_IUPAC_SYSTEMATIC_NAME>
3-[(3-methylphenyl)methylsulfanyl]-1H-indole

> <PUBCHEM_IUPAC_TRADITIONAL_NAME>
3-[(3-methylbenzyl)thio]-1H-indole

> <PUBCHEM_IUPAC_INCHI>
InChI=1S/C16H15NS/c1-12-5-4-6-13(9-12)11-18-16-10-17-15-8-3-2-7-14(15)16/h2-10,17H,11H2,1H3

> <PUBCHEM_IUPAC_INCHIKEY>
GUHDIDNNMRFHFX-UHFFFAOYSA-N

> <PUBCHEM_XLOGP3>
4

> <PUBCHEM_EXACT_MASS>
253.09252

> <PUBCHEM_MOLECULAR_FORMULA>
C16H15NS

> <PUBCHEM_MOLECULAR_WEIGHT>
253.362

> <PUBCHEM_OPENEYE_CAN_SMILES>
CC1=CC(=CC=C1)CSC2=CNC3=CC=CC=C32

> <PUBCHEM_OPENEYE_ISO_SMILES>
CC1=CC(=CC=C1)CSC2=CNC3=CC=CC=C32

> <PUBCHEM_CACTVS_TPSA>
41.1

> <PUBCHEM_MONOISOTOPIC_WEIGHT>
253.09252

> <PUBCHEM_TOTAL_CHARGE>
0

> <PUBCHEM_HEAVY_ATOM_COUNT>
18

> <PUBCHEM_ATOM_DEF_STEREO_COUNT>
0

> <PUBCHEM_ATOM_UDEF_STEREO_COUNT>
0

> <PUBCHEM_BOND_DEF_STEREO_COUNT>
0

> <PUBCHEM_BOND_UDEF_STEREO_COUNT>
0

> <PUBCHEM_ISOTOPIC_ATOM_COUNT>
0

> <PUBCHEM_COMPONENT_COUNT>
1

> <PUBCHEM_CACTVS_TAUTO_COUNT>
1

> <PUBCHEM_COORDINATE_TYPE>
1
5
255

> <PUBCHEM_BONDANNOTATIONS>
10  15  8
11  12  8
12  16  8
13  17  8
14  15  8
16  17  8
2  4  8
2  8  8
3  4  8
3  5  8
3  9  8
4  10  8
5  8  8
7  11  8
7  13  8
9  14  8

$$$$
43949394
  -OEChem-12041212032D

 33 35  0     0  0  0  0  0  0999 V2000
    4.9889   -0.4295    0.0000 S   0  0  0  0  0  0  0  0  0  0  0  0
    4.6783   -2.9895    0.0000 N   0  0  0  0  0  0  0  0  0  0  0  0
    3.7320   -1.6848    0.0000 C   0  0  0  0  0  0  0  0  0  0  0  0
    3.7320   -2.6848    0.0000 C   0  0  0  0  0  0  0  0  0  0  0  0
    4.6783   -1.3800    0.0000 C   0  0  0  0  0  0  0  0  0  0  0  0
    5.9674   -0.2233    0.0000 C   0  0  0  0  0  0  0  0  0  0  0  0
    5.2619   -2.1848    0.0000 C   0  0  0  0  0  0  0  0  0  0  0  0
    6.2781    0.7272    0.0000 C   0  0  0  0  0  0  0  0  0  0  0  0
    2.8660   -1.1848    0.0000 C   0  0  0  0  0  0  0  0  0  0  0  0
    2.8660   -3.1848    0.0000 C   0  0  0  0  0  0  0  0  0  0  0  0
    7.2566    0.9335    0.0000 C   0  0  0  0  0  0  0  0  0  0  0  0
    5.6103    1.4715    0.0000 C   0  0  0  0  0  0  0  0  0  0  0  0
    2.0000   -1.6848    0.0000 C   0  0  0  0  0  0  0  0  0  0  0  0
    6.8994    2.6283    0.0000 C   0  0  0  0  0  0  0  0  0  0  0  0
    2.0000   -2.6848    0.0000 C   0  0  0  0  0  0  0  0  0  0  0  0
    7.5673    1.8840    0.0000 C   0  0  0  0  0  0  0  0  0  0  0  0
    5.9209    2.4221    0.0000 C   0  0  0  0  0  0  0  0  0  0  0  0
    7.2101    3.5788    0.0000 C   0  0  0  0  0  0  0  0  0  0  0  0
    5.9880   -0.8429    0.0000 H   0  0  0  0  0  0  0  0  0  0  0  0
    6.5812   -0.3106    0.0000 H   0  0  0  0  0  0  0  0  0  0  0  0
    4.8709   -3.5788    0.0000 H   0  0  0  0  0  0  0  0  0  0  0  0
    5.8819   -2.1848    0.0000 H   0  0  0  0  0  0  0  0  0  0  0  0
    2.8660   -0.5647    0.0000 H   0  0  0  0  0  0  0  0  0  0  0  0
    2.8660   -3.8048    0.0000 H   0  0  0  0  0  0  0  0  0  0  0  0
    7.6707    0.4720    0.0000 H   0  0  0  0  0  0  0  0  0  0  0  0
    5.0036    1.3437    0.0000 H   0  0  0  0  0  0  0  0  0  0  0  0
    1.4631   -1.3748    0.0000 H   0  0  0  0  0  0  0  0  0  0  0  0
    1.4631   -2.9947    0.0000 H   0  0  0  0  0  0  0  0  0  0  0  0
    8.1739    2.0118    0.0000 H   0  0  0  0  0  0  0  0  0  0  0  0
    5.5069    2.8835    0.0000 H   0  0  0  0  0  0  0  0  0  0  0  0
    7.7994    3.3862    0.0000 H   0  0  0  0  0  0  0  0  0  0  0  0
    7.4027    4.1681    0.0000 H   0  0  0  0  0  0  0  0  0  0  0  0
    6.6208    3.7714    0.0000 H   0  0  0  0  0  0  0  0  0  0  0  0
  1  5  1  0  0  0  0
  1  6  1  0  0  0  0
  2  4  1  0  0  0  0
  2  7  1  0  0  0  0
  2 21  1  0  0  0  0
  3  4  1  0  0  0  0
  3  5  1  0  0  0  0
  3  9  2  0  0  0  0
  4 10  2  0  0  0  0
  5  7  2  0  0  0  0
  6  8  1  0  0  0  0
  6 19  1  0  0  0  0
  6 20  1  0  0  0  0
  7 22  1  0  0  0  0
  8 11  2  0  0  0  0
  8 12  1  0  0  0  0
  9 13  1  0  0  0  0
  9 23  1  0  0  0  0
 10 15  1  0  0  0  0
 10 24  1  0  0  0  0
 11 16  1  0  0  0  0
 11 25  1  0  0  0  0
 12 17  2  0  0  0  0
 12 26  1  0  0  0  0
 13 15  2  0  0  0  0
 13 27  1  0  0  0  0
 14 16  2  0  0  0  0
 14 17  1  0  0  0  0
 14 18  1  0  0  0  0
 15 28  1  0  0  0  0
 16 29  1  0  0  0  0
 17 30  1  0  0  0  0
 18 31  1  0  0  0  0
 18 32  1  0  0  0  0
 18 33  1  0  0  0  0
M  END
> <PUBCHEM_COMPOUND_CID>
43949394

> <PUBCHEM_COMPOUND_CANONICALIZED>
1

> <PUBCHEM_CACTVS_COMPLEXITY>
260

> <PUBCHEM_CACTVS_HBOND_ACCEPTOR>
1

> <PUBCHEM_CACTVS_HBOND_DONOR>
1

> <PUBCHEM_CACTVS_ROTATABLE_BOND>
3

> <PUBCHEM_CACTVS_SUBSKEYS>
AAADccB6AABAAAAAAAAAAAAAAAAAAWAAAAAwYAAAAAAAAFgB9AAAHAQQAAAADAjFXgS+wfLJkAigAzRnRACCgCAxCjAI2bw4ZJgIIOLgkZGEIAxgkADoyAcQgIAOQAAAAAACAACAAAAAAAQAAAAAAAAAAA==

> <PUBCHEM_IUPAC_OPENEYE_NAME>
3-(p-tolylmethylsulfanyl)-1H-indole

> <PUBCHEM_IUPAC_CAS_NAME>
3-[(4-methylphenyl)methylthio]-1H-indole

> <PUBCHEM_IUPAC_NAME>
3-[(4-methylphenyl)methylsulfanyl]-1H-indole

> <PUBCHEM_IUPAC_SYSTEMATIC_NAME>
3-[(4-methylphenyl)methylsulfanyl]-1H-indole

> <PUBCHEM_IUPAC_TRADITIONAL_NAME>
3-[(4-methylbenzyl)thio]-1H-indole

> <PUBCHEM_IUPAC_INCHI>
InChI=1S/C16H15NS/c1-12-6-8-13(9-7-12)11-18-16-10-17-15-5-3-2-4-14(15)16/h2-10,17H,11H2,1H3

> <PUBCHEM_IUPAC_INCHIKEY>
UMDQTWCOQIXEDD-UHFFFAOYSA-N

> <PUBCHEM_XLOGP3>
4

> <PUBCHEM_EXACT_MASS>
253.09252

> <PUBCHEM_MOLECULAR_FORMULA>
C16H15NS

> <PUBCHEM_MOLECULAR_WEIGHT>
253.362

> <PUBCHEM_OPENEYE_CAN_SMILES>
CC1=CC=C(C=C1)CSC2=CNC3=CC=CC=C32

> <PUBCHEM_OPENEYE_ISO_SMILES>
CC1=CC=C(C=C1)CSC2=CNC3=CC=CC=C32

> <PUBCHEM_CACTVS_TPSA>
41.1

> <PUBCHEM_MONOISOTOPIC_WEIGHT>
253.09252

> <PUBCHEM_TOTAL_CHARGE>
0

> <PUBCHEM_HEAVY_ATOM_COUNT>
18

> <PUBCHEM_ATOM_DEF_STEREO_COUNT>
0

> <PUBCHEM_ATOM_UDEF_STEREO_COUNT>
0

> <PUBCHEM_BOND_DEF_STEREO_COUNT>
0

> <PUBCHEM_BOND_UDEF_STEREO_COUNT>
0

> <PUBCHEM_ISOTOPIC_ATOM_COUNT>
0

> <PUBCHEM_COMPONENT_COUNT>
1

> <PUBCHEM_CACTVS_TAUTO_COUNT>
1

> <PUBCHEM_COORDINATE_TYPE>
1
5
255

> <PUBCHEM_BONDANNOTATIONS>
10  15  8
11  16  8
12  17  8
13  15  8
14  16  8
14  17  8
2  4  8
2  7  8
3  4  8
3  5  8
3  9  8
4  10  8
5  7  8
8  11  8
8  12  8
9  13  8

$$$$
43949396
  -OEChem-12041212032D

 33 35  0     1  0  0  0  0  0999 V2000
    4.9889    0.0458    0.0000 S   0  0  0  0  0  0  0  0  0  0  0  0
    4.6783   -2.5142    0.0000 N   0  0  0  0  0  0  0  0  0  0  0  0
    5.9674    0.2520    0.0000 C   0  0  3  0  0  0  0  0  0  0  0  0
    3.7320   -1.2095    0.0000 C   0  0  0  0  0  0  0  0  0  0  0  0
    4.6783   -0.9048    0.0000 C   0  0  0  0  0  0  0  0  0  0  0  0
    3.7320   -2.2095    0.0000 C   0  0  0  0  0  0  0  0  0  0  0  0
    6.2781    1.2025    0.0000 C   0  0  0  0  0  0  0  0  0  0  0  0
    5.2619   -1.7095    0.0000 C   0  0  0  0  0  0  0  0  0  0  0  0
    6.6353   -0.4923    0.0000 C   0  0  0  0  0  0  0  0  0  0  0  0
    2.8660   -0.7095    0.0000 C   0  0  0  0  0  0  0  0  0  0  0  0
    2.8660   -2.7095    0.0000 C   0  0  0  0  0  0  0  0  0  0  0  0
    7.2566    1.4087    0.0000 C   0  0  0  0  0  0  0  0  0  0  0  0
    5.6103    1.9468    0.0000 C   0  0  0  0  0  0  0  0  0  0  0  0
    2.0000   -1.2095    0.0000 C   0  0  0  0  0  0  0  0  0  0  0  0
    2.0000   -2.2095    0.0000 C   0  0  0  0  0  0  0  0  0  0  0  0
    7.5673    2.3592    0.0000 C   0  0  0  0  0  0  0  0  0  0  0  0
    5.9209    2.8973    0.0000 C   0  0  0  0  0  0  0  0  0  0  0  0
    6.8994    3.1035    0.0000 C   0  0  0  0  0  0  0  0  0  0  0  0
    5.7748   -0.3373    0.0000 H   0  0  0  0  0  0  0  0  0  0  0  0
    5.8819   -1.7095    0.0000 H   0  0  0  0  0  0  0  0  0  0  0  0
    4.8709   -3.1035    0.0000 H   0  0  0  0  0  0  0  0  0  0  0  0
    6.1738   -0.9064    0.0000 H   0  0  0  0  0  0  0  0  0  0  0  0
    7.0494   -0.9538    0.0000 H   0  0  0  0  0  0  0  0  0  0  0  0
    7.0968   -0.0783    0.0000 H   0  0  0  0  0  0  0  0  0  0  0  0
    2.8660   -0.0895    0.0000 H   0  0  0  0  0  0  0  0  0  0  0  0
    2.8660   -3.3295    0.0000 H   0  0  0  0  0  0  0  0  0  0  0  0
    7.6707    0.9473    0.0000 H   0  0  0  0  0  0  0  0  0  0  0  0
    5.0036    1.8190    0.0000 H   0  0  0  0  0  0  0  0  0  0  0  0
    1.4631   -0.8995    0.0000 H   0  0  0  0  0  0  0  0  0  0  0  0
    1.4631   -2.5195    0.0000 H   0  0  0  0  0  0  0  0  0  0  0  0
    8.1739    2.4871    0.0000 H   0  0  0  0  0  0  0  0  0  0  0  0
    5.5069    3.3588    0.0000 H   0  0  0  0  0  0  0  0  0  0  0  0
    7.0920    3.6929    0.0000 H   0  0  0  0  0  0  0  0  0  0  0  0
  1  3  1  0  0  0  0
  1  5  1  0  0  0  0
  2  6  1  0  0  0  0
  2  8  1  0  0  0  0
  2 21  1  0  0  0  0
  3  7  1  0  0  0  0
  3  9  1  0  0  0  0
  3 19  1  0  0  0  0
  4  5  1  0  0  0  0
  4  6  1  0  0  0  0
  4 10  2  0  0  0  0
  5  8  2  0  0  0  0
  6 11  2  0  0  0  0
  7 12  2  0  0  0  0
  7 13  1  0  0  0  0
  8 20  1  0  0  0  0
  9 22  1  0  0  0  0
  9 23  1  0  0  0  0
  9 24  1  0  0  0  0
 10 14  1  0  0  0  0
 10 25  1  0  0  0  0
 11 15  1  0  0  0  0
 11 26  1  0  0  0  0
 12 16  1  0  0  0  0
 12 27  1  0  0  0  0
 13 17  2  0  0  0  0
 13 28  1  0  0  0  0
 14 15  2  0  0  0  0
 14 29  1  0  0  0  0
 15 30  1  0  0  0  0
 16 18  2  0  0  0  0
 16 31  1  0  0  0  0
 17 18  1  0  0  0  0
 17 32  1  0  0  0  0
 18 33  1  0  0  0  0
M  END
> <PUBCHEM_COMPOUND_CID>
43949396

> <PUBCHEM_COMPOUND_CANONICALIZED>
1

> <PUBCHEM_CACTVS_COMPLEXITY>
262

> <PUBCHEM_CACTVS_HBOND_ACCEPTOR>
1

> <PUBCHEM_CACTVS_HBOND_DONOR>
1

> <PUBCHEM_CACTVS_ROTATABLE_BOND>
3

> <PUBCHEM_CACTVS_SUBSKEYS>
AAADccB6AABAAAAAAAAAAAAAAAAAAWAAAAAwYAAAAAAAAFgB9AAAHAQQAAAADAjFXgS+wfLJkAigAzRnRACCgCAxCjAI2bw4ZJgIIOLgkZGEIAxgkADoyAcQgIAOAAAAAAACAAAAAAAAAAQAAAAAAAAAAA==

> <PUBCHEM_IUPAC_OPENEYE_NAME>
3-(1-phenylethylsulfanyl)-1H-indole

> <PUBCHEM_IUPAC_CAS_NAME>
3-(1-phenylethylthio)-1H-indole

> <PUBCHEM_IUPAC_NAME>
3-(1-phenylethylsulfanyl)-1H-indole

> <PUBCHEM_IUPAC_SYSTEMATIC_NAME>
3-(1-phenylethylsulfanyl)-1H-indole

> <PUBCHEM_IUPAC_TRADITIONAL_NAME>
3-(1-phenylethylthio)-1H-indole

> <PUBCHEM_IUPAC_INCHI>
InChI=1S/C16H15NS/c1-12(13-7-3-2-4-8-13)18-16-11-17-15-10-6-5-9-14(15)16/h2-12,17H,1H3

> <PUBCHEM_IUPAC_INCHIKEY>
PVUXSWNQEKBADP-UHFFFAOYSA-N

> <PUBCHEM_XLOGP3>
4.1

> <PUBCHEM_EXACT_MASS>
253.09252

> <PUBCHEM_MOLECULAR_FORMULA>
C16H15NS

> <PUBCHEM_MOLECULAR_WEIGHT>
253.362

> <PUBCHEM_OPENEYE_CAN_SMILES>
CC(C1=CC=CC=C1)SC2=CNC3=CC=CC=C32

> <PUBCHEM_OPENEYE_ISO_SMILES>
CC(C1=CC=CC=C1)SC2=CNC3=CC=CC=C32

> <PUBCHEM_CACTVS_TPSA>
41.1

> <PUBCHEM_MONOISOTOPIC_WEIGHT>
253.09252

> <PUBCHEM_TOTAL_CHARGE>
0

> <PUBCHEM_HEAVY_ATOM_COUNT>
18

> <PUBCHEM_ATOM_DEF_STEREO_COUNT>
0

> <PUBCHEM_ATOM_UDEF_STEREO_COUNT>
1

> <PUBCHEM_BOND_DEF_STEREO_COUNT>
0

> <PUBCHEM_BOND_UDEF_STEREO_COUNT>
0

> <PUBCHEM_ISOTOPIC_ATOM_COUNT>
0

> <PUBCHEM_COMPONENT_COUNT>
1

> <PUBCHEM_CACTVS_TAUTO_COUNT>
1

> <PUBCHEM_COORDINATE_TYPE>
1
5
255

> <PUBCHEM_BONDANNOTATIONS>
10  14  8
11  15  8
12  16  8
13  17  8
14  15  8
16  18  8
17  18  8
2  6  8
2  8  8
3  9  3
4  10  8
4  5  8
4  6  8
5  8  8
6  11  8
7  12  8
7  13  8

$$$$
43949398
  -OEChem-12041212032D

 36 38  0     0  0  0  0  0  0999 V2000
    4.9889   -0.2233    0.0000 S   0  0  0  0  0  0  0  0  0  0  0  0
    4.6783   -2.7833    0.0000 N   0  0  0  0  0  0  0  0  0  0  0  0
    6.2781    0.9335    0.0000 C   0  0  0  0  0  0  0  0  0  0  0  0
    3.7320   -1.4785    0.0000 C   0  0  0  0  0  0  0  0  0  0  0  0
    5.9674   -0.0171    0.0000 C   0  0  0  0  0  0  0  0  0  0  0  0
    4.6783   -1.1738    0.0000 C   0  0  0  0  0  0  0  0  0  0  0  0
    3.7320   -2.4785    0.0000 C   0  0  0  0  0  0  0  0  0  0  0  0
    7.2566    1.1397    0.0000 C   0  0  0  0  0  0  0  0  0  0  0  0
    5.6103    1.6778    0.0000 C   0  0  0  0  0  0  0  0  0  0  0  0
    5.2619   -1.9785    0.0000 C   0  0  0  0  0  0  0  0  0  0  0  0
    5.9209    2.6283    0.0000 C   0  0  0  0  0  0  0  0  0  0  0  0
    7.5673    2.0902    0.0000 C   0  0  0  0  0  0  0  0  0  0  0  0
    2.8660   -0.9785    0.0000 C   0  0  0  0  0  0  0  0  0  0  0  0
    6.8994    2.8345    0.0000 C   0  0  0  0  0  0  0  0  0  0  0  0
    2.8660   -2.9785    0.0000 C   0  0  0  0  0  0  0  0  0  0  0  0
    7.9244    0.3954    0.0000 C   0  0  0  0  0  0  0  0  0  0  0  0
    2.0000   -1.4785    0.0000 C   0  0  0  0  0  0  0  0  0  0  0  0
    2.0000   -2.4785    0.0000 C   0  0  0  0  0  0  0  0  0  0  0  0
    5.2531    3.3726    0.0000 C   0  0  0  0  0  0  0  0  0  0  0  0
    5.9880   -0.6367    0.0000 H   0  0  0  0  0  0  0  0  0  0  0  0
    6.5812   -0.1044    0.0000 H   0  0  0  0  0  0  0  0  0  0  0  0
    5.0036    1.5499    0.0000 H   0  0  0  0  0  0  0  0  0  0  0  0
    5.8819   -1.9785    0.0000 H   0  0  0  0  0  0  0  0  0  0  0  0
    4.8709   -3.3726    0.0000 H   0  0  0  0  0  0  0  0  0  0  0  0
    8.1739    2.2181    0.0000 H   0  0  0  0  0  0  0  0  0  0  0  0
    2.8660   -0.3585    0.0000 H   0  0  0  0  0  0  0  0  0  0  0  0
    7.0920    3.4238    0.0000 H   0  0  0  0  0  0  0  0  0  0  0  0
    2.8660   -3.5985    0.0000 H   0  0  0  0  0  0  0  0  0  0  0  0
    7.4630   -0.0187    0.0000 H   0  0  0  0  0  0  0  0  0  0  0  0
    8.3385   -0.0661    0.0000 H   0  0  0  0  0  0  0  0  0  0  0  0
    8.3859    0.8094    0.0000 H   0  0  0  0  0  0  0  0  0  0  0  0
    1.4631   -1.1685    0.0000 H   0  0  0  0  0  0  0  0  0  0  0  0
    1.4631   -2.7885    0.0000 H   0  0  0  0  0  0  0  0  0  0  0  0
    5.7145    3.7866    0.0000 H   0  0  0  0  0  0  0  0  0  0  0  0
    4.8390    3.8340    0.0000 H   0  0  0  0  0  0  0  0  0  0  0  0
    4.7916    2.9585    0.0000 H   0  0  0  0  0  0  0  0  0  0  0  0
  1  5  1  0  0  0  0
  1  6  1  0  0  0  0
  2  7  1  0  0  0  0
  2 10  1  0  0  0  0
  2 24  1  0  0  0  0
  3  5  1  0  0  0  0
  3  8  2  0  0  0  0
  3  9  1  0  0  0  0
  4  6  1  0  0  0  0
  4  7  1  0  0  0  0
  4 13  2  0  0  0  0
  5 20  1  0  0  0  0
  5 21  1  0  0  0  0
  6 10  2  0  0  0  0
  7 15  2  0  0  0  0
  8 12  1  0  0  0  0
  8 16  1  0  0  0  0
  9 11  2  0  0  0  0
  9 22  1  0  0  0  0
 10 23  1  0  0  0  0
 11 14  1  0  0  0  0
 11 19  1  0  0  0  0
 12 14  2  0  0  0  0
 12 25  1  0  0  0  0
 13 17  1  0  0  0  0
 13 26  1  0  0  0  0
 14 27  1  0  0  0  0
 15 18  1  0  0  0  0
 15 28  1  0  0  0  0
 16 29  1  0  0  0  0
 16 30  1  0  0  0  0
 16 31  1  0  0  0  0
 17 18  2  0  0  0  0
 17 32  1  0  0  0  0
 18 33  1  0  0  0  0
 19 34  1  0  0  0  0
 19 35  1  0  0  0  0
 19 36  1  0  0  0  0
M  END
> <PUBCHEM_COMPOUND_CID>
43949398

> <PUBCHEM_COMPOUND_CANONICALIZED>
1

> <PUBCHEM_CACTVS_COMPLEXITY>
293

> <PUBCHEM_CACTVS_HBOND_ACCEPTOR>
1

> <PUBCHEM_CACTVS_HBOND_DONOR>
1

> <PUBCHEM_CACTVS_ROTATABLE_BOND>
3

> <PUBCHEM_CACTVS_SUBSKEYS>
AAADceB6AABAAAAAAAAAAAAAAAAAAWAAAAAwYAAAAAAAAFgB9AAAHAQQAAAADAjFXgS+wfLJkAigAzRnRACCgCAxCjAI2bw4ZJgIIOLgkZGEIAxgkADoyAcQgMAOwAACAAASAACAAAQAACQAAAAAAAAAAA==

> <PUBCHEM_IUPAC_OPENEYE_NAME>
3-[(2,5-dimethylphenyl)methylsulfanyl]-1H-indole

> <PUBCHEM_IUPAC_CAS_NAME>
3-[(2,5-dimethylphenyl)methylthio]-1H-indole

> <PUBCHEM_IUPAC_NAME>
3-[(2,5-dimethylphenyl)methylsulfanyl]-1H-indole

> <PUBCHEM_IUPAC_SYSTEMATIC_NAME>
3-[(2,5-dimethylphenyl)methylsulfanyl]-1H-indole

> <PUBCHEM_IUPAC_TRADITIONAL_NAME>
3-[(2,5-dimethylbenzyl)thio]-1H-indole

> <PUBCHEM_IUPAC_INCHI>
InChI=1S/C17H17NS/c1-12-7-8-13(2)14(9-12)11-19-17-10-18-16-6-4-3-5-15(16)17/h3-10,18H,11H2,1-2H3

> <PUBCHEM_IUPAC_INCHIKEY>
GYTODQFLFOTKRQ-UHFFFAOYSA-N

> <PUBCHEM_XLOGP3>
4.4

> <PUBCHEM_EXACT_MASS>
267.108171

> <PUBCHEM_MOLECULAR_FORMULA>
C17H17NS

> <PUBCHEM_MOLECULAR_WEIGHT>
267.38858

> <PUBCHEM_OPENEYE_CAN_SMILES>
CC1=CC(=C(C=C1)C)CSC2=CNC3=CC=CC=C32

> <PUBCHEM_OPENEYE_ISO_SMILES>
CC1=CC(=C(C=C1)C)CSC2=CNC3=CC=CC=C32

> <PUBCHEM_CACTVS_TPSA>
41.1

> <PUBCHEM_MONOISOTOPIC_WEIGHT>
267.108171

> <PUBCHEM_TOTAL_CHARGE>
0

> <PUBCHEM_HEAVY_ATOM_COUNT>
19

> <PUBCHEM_ATOM_DEF_STEREO_COUNT>
0

> <PUBCHEM_ATOM_UDEF_STEREO_COUNT>
0

> <PUBCHEM_BOND_DEF_STEREO_COUNT>
0

> <PUBCHEM_BOND_UDEF_STEREO_COUNT>
0

> <PUBCHEM_ISOTOPIC_ATOM_COUNT>
0

> <PUBCHEM_COMPONENT_COUNT>
1

> <PUBCHEM_CACTVS_TAUTO_COUNT>
1

> <PUBCHEM_COORDINATE_TYPE>
1
5
255

> <PUBCHEM_BONDANNOTATIONS>
11  14  8
12  14  8
13  17  8
15  18  8
17  18  8
2  10  8
2  7  8
3  8  8
3  9  8
4  13  8
4  6  8
4  7  8
6  10  8
7  15  8
8  12  8
9  11  8

$$$$
43949400
  -OEChem-12041212032D

 26 27  0     0  0  0  0  0  0999 V2000
    4.9889    0.9963    0.0000 S   0  0  0  0  0  0  0  0  0  0  0  0
    4.6783   -1.5637    0.0000 N   0  0  0  0  0  0  0  0  0  0  0  0
    3.7320   -0.2590    0.0000 C   0  0  0  0  0  0  0  0  0  0  0  0
    4.6783    0.0458    0.0000 C   0  0  0  0  0  0  0  0  0  0  0  0
    5.9674    1.2025    0.0000 C   0  0  0  0  0  0  0  0  0  0  0  0
    3.7320   -1.2590    0.0000 C   0  0  0  0  0  0  0  0  0  0  0  0
    5.2619   -0.7590    0.0000 C   0  0  0  0  0  0  0  0  0  0  0  0
    2.8660    0.2410    0.0000 C   0  0  0  0  0  0  0  0  0  0  0  0
    2.8660   -1.7590    0.0000 C   0  0  0  0  0  0  0  0  0  0  0  0
    6.2781    2.1530    0.0000 C   0  0  0  0  0  0  0  0  0  0  0  0
    6.6353    0.4582    0.0000 C   0  0  0  0  0  0  0  0  0  0  0  0
    2.0000   -0.2590    0.0000 C   0  0  0  0  0  0  0  0  0  0  0  0
    2.0000   -1.2590    0.0000 C   0  0  0  0  0  0  0  0  0  0  0  0
    5.7748    0.6132    0.0000 H   0  0  0  0  0  0  0  0  0  0  0  0
    5.8819   -0.7590    0.0000 H   0  0  0  0  0  0  0  0  0  0  0  0
    4.8709   -2.1530    0.0000 H   0  0  0  0  0  0  0  0  0  0  0  0
    2.8660    0.8610    0.0000 H   0  0  0  0  0  0  0  0  0  0  0  0
    6.8674    1.9604    0.0000 H   0  0  0  0  0  0  0  0  0  0  0  0
    6.4707    2.7424    0.0000 H   0  0  0  0  0  0  0  0  0  0  0  0
    6.1738    0.0441    0.0000 H   0  0  0  0  0  0  0  0  0  0  0  0
    7.0494   -0.0033    0.0000 H   0  0  0  0  0  0  0  0  0  0  0  0
    7.0968    0.8723    0.0000 H   0  0  0  0  0  0  0  0  0  0  0  0
    5.6888    2.3456    0.0000 H   0  0  0  0  0  0  0  0  0  0  0  0
    2.8660   -2.3790    0.0000 H   0  0  0  0  0  0  0  0  0  0  0  0
    1.4631    0.0510    0.0000 H   0  0  0  0  0  0  0  0  0  0  0  0
    1.4631   -1.5690    0.0000 H   0  0  0  0  0  0  0  0  0  0  0  0
  1  4  1  0  0  0  0
  1  5  1  0  0  0  0
  2  6  1  0  0  0  0
  2  7  1  0  0  0  0
  2 16  1  0  0  0  0
  3  4  1  0  0  0  0
  3  6  1  0  0  0  0
  3  8  2  0  0  0  0
  4  7  2  0  0  0  0
  5 10  1  0  0  0  0
  5 11  1  0  0  0  0
  5 14  1  0  0  0  0
  6  9  2  0  0  0  0
  7 15  1  0  0  0  0
  8 12  1  0  0  0  0
  8 17  1  0  0  0  0
  9 13  1  0  0  0  0
  9 24  1  0  0  0  0
 10 18  1  0  0  0  0
 10 19  1  0  0  0  0
 10 23  1  0  0  0  0
 11 20  1  0  0  0  0
 11 21  1  0  0  0  0
 11 22  1  0  0  0  0
 12 13  2  0  0  0  0
 12 25  1  0  0  0  0
 13 26  1  0  0  0  0
M  END
> <PUBCHEM_COMPOUND_CID>
43949400

> <PUBCHEM_COMPOUND_CANONICALIZED>
1

> <PUBCHEM_CACTVS_COMPLEXITY>
170

> <PUBCHEM_CACTVS_HBOND_ACCEPTOR>
1

> <PUBCHEM_CACTVS_HBOND_DONOR>
1

> <PUBCHEM_CACTVS_ROTATABLE_BOND>
2

> <PUBCHEM_CACTVS_SUBSKEYS>
AAADccByAABAAAAAAAAAAAAAAAAAAWAAAAAwAAAAAAAAAFgB8AAAHAQQAAAADAjFXgS+wfLJkAigAzRnRACCgCAxCjAI2bw4ZJgIIOLgkZGEIAxgkADoyAcQgIAOAAAAAAACAAAAAAAAAAQAAAAAAAAAAA==

> <PUBCHEM_IUPAC_OPENEYE_NAME>
3-isopropylsulfanyl-1H-indole

> <PUBCHEM_IUPAC_CAS_NAME>
3-(propan-2-ylthio)-1H-indole

> <PUBCHEM_IUPAC_NAME>
3-propan-2-ylsulfanyl-1H-indole

> <PUBCHEM_IUPAC_SYSTEMATIC_NAME>
3-propan-2-ylsulfanyl-1H-indole

> <PUBCHEM_IUPAC_TRADITIONAL_NAME>
3-(isopropylthio)-1H-indole

> <PUBCHEM_IUPAC_INCHI>
InChI=1S/C11H13NS/c1-8(2)13-11-7-12-10-6-4-3-5-9(10)11/h3-8,12H,1-2H3

> <PUBCHEM_IUPAC_INCHIKEY>
OURZMOLJJPGRPO-UHFFFAOYSA-N

> <PUBCHEM_XLOGP3>
3

> <PUBCHEM_EXACT_MASS>
191.07687

> <PUBCHEM_MOLECULAR_FORMULA>
C11H13NS

> <PUBCHEM_MOLECULAR_WEIGHT>
191.29262

> <PUBCHEM_OPENEYE_CAN_SMILES>
CC(C)SC1=CNC2=CC=CC=C21

> <PUBCHEM_OPENEYE_ISO_SMILES>
CC(C)SC1=CNC2=CC=CC=C21

> <PUBCHEM_CACTVS_TPSA>
41.1

> <PUBCHEM_MONOISOTOPIC_WEIGHT>
191.07687

> <PUBCHEM_TOTAL_CHARGE>
0

> <PUBCHEM_HEAVY_ATOM_COUNT>
13

> <PUBCHEM_ATOM_DEF_STEREO_COUNT>
0

> <PUBCHEM_ATOM_UDEF_STEREO_COUNT>
0

> <PUBCHEM_BOND_DEF_STEREO_COUNT>
0

> <PUBCHEM_BOND_UDEF_STEREO_COUNT>
0

> <PUBCHEM_ISOTOPIC_ATOM_COUNT>
0

> <PUBCHEM_COMPONENT_COUNT>
1

> <PUBCHEM_CACTVS_TAUTO_COUNT>
1

> <PUBCHEM_COORDINATE_TYPE>
1
5
255

> <PUBCHEM_BONDANNOTATIONS>
12  13  8
2  6  8
2  7  8
3  4  8
3  6  8
3  8  8
4  7  8
6  9  8
8  12  8
9  13  8

$$$$
43949401
  -OEChem-12041212032D

 30 32  0     0  0  0  0  0  0999 V2000
    7.9244    0.6644    0.0000 Cl  0  0  0  0  0  0  0  0  0  0  0  0
    4.9889    0.0458    0.0000 S   0  0  0  0  0  0  0  0  0  0  0  0
    4.6783   -2.5142    0.0000 N   0  0  0  0  0  0  0  0  0  0  0  0
    3.7320   -1.2095    0.0000 C   0  0  0  0  0  0  0  0  0  0  0  0
    3.7320   -2.2095    0.0000 C   0  0  0  0  0  0  0  0  0  0  0  0
    4.6783   -0.9048    0.0000 C   0  0  0  0  0  0  0  0  0  0  0  0
    5.2619   -1.7095    0.0000 C   0  0  0  0  0  0  0  0  0  0  0  0
    5.9674    0.2520    0.0000 C   0  0  0  0  0  0  0  0  0  0  0  0
    2.8660   -0.7095    0.0000 C   0  0  0  0  0  0  0  0  0  0  0  0
    2.8660   -2.7095    0.0000 C   0  0  0  0  0  0  0  0  0  0  0  0
    6.2781    1.2025    0.0000 C   0  0  0  0  0  0  0  0  0  0  0  0
    2.0000   -1.2095    0.0000 C   0  0  0  0  0  0  0  0  0  0  0  0
    2.0000   -2.2095    0.0000 C   0  0  0  0  0  0  0  0  0  0  0  0
    7.2566    1.4087    0.0000 C   0  0  0  0  0  0  0  0  0  0  0  0
    5.6103    1.9468    0.0000 C   0  0  0  0  0  0  0  0  0  0  0  0
    7.5673    2.3592    0.0000 C   0  0  0  0  0  0  0  0  0  0  0  0
    5.9209    2.8973    0.0000 C   0  0  0  0  0  0  0  0  0  0  0  0
    6.8994    3.1035    0.0000 C   0  0  0  0  0  0  0  0  0  0  0  0
    4.8709   -3.1035    0.0000 H   0  0  0  0  0  0  0  0  0  0  0  0
    5.8819   -1.7095    0.0000 H   0  0  0  0  0  0  0  0  0  0  0  0
    5.9880   -0.3677    0.0000 H   0  0  0  0  0  0  0  0  0  0  0  0
    6.5812    0.1646    0.0000 H   0  0  0  0  0  0  0  0  0  0  0  0
    2.8660   -0.0895    0.0000 H   0  0  0  0  0  0  0  0  0  0  0  0
    2.8660   -3.3295    0.0000 H   0  0  0  0  0  0  0  0  0  0  0  0
    1.4631   -0.8995    0.0000 H   0  0  0  0  0  0  0  0  0  0  0  0
    1.4631   -2.5195    0.0000 H   0  0  0  0  0  0  0  0  0  0  0  0
    5.0036    1.8190    0.0000 H   0  0  0  0  0  0  0  0  0  0  0  0
    8.1739    2.4871    0.0000 H   0  0  0  0  0  0  0  0  0  0  0  0
    5.5069    3.3588    0.0000 H   0  0  0  0  0  0  0  0  0  0  0  0
    7.0920    3.6929    0.0000 H   0  0  0  0  0  0  0  0  0  0  0  0
  1 14  1  0  0  0  0
  2  6  1  0  0  0  0
  2  8  1  0  0  0  0
  3  5  1  0  0  0  0
  3  7  1  0  0  0  0
  3 19  1  0  0  0  0
  4  5  1  0  0  0  0
  4  6  1  0  0  0  0
  4  9  2  0  0  0  0
  5 10  2  0  0  0  0
  6  7  2  0  0  0  0
  7 20  1  0  0  0  0
  8 11  1  0  0  0  0
  8 21  1  0  0  0  0
  8 22  1  0  0  0  0
  9 12  1  0  0  0  0
  9 23  1  0  0  0  0
 10 13  1  0  0  0  0
 10 24  1  0  0  0  0
 11 14  1  0  0  0  0
 11 15  2  0  0  0  0
 12 13  2  0  0  0  0
 12 25  1  0  0  0  0
 13 26  1  0  0  0  0
 14 16  2  0  0  0  0
 15 17  1  0  0  0  0
 15 27  1  0  0  0  0
 16 18  1  0  0  0  0
 16 28  1  0  0  0  0
 17 18  2  0  0  0  0
 17 29  1  0  0  0  0
 18 30  1  0  0  0  0
M  END
> <PUBCHEM_COMPOUND_CID>
43949401

> <PUBCHEM_COMPOUND_CANONICALIZED>
1

> <PUBCHEM_CACTVS_COMPLEXITY>
273

> <PUBCHEM_CACTVS_HBOND_ACCEPTOR>
1

> <PUBCHEM_CACTVS_HBOND_DONOR>
1

> <PUBCHEM_CACTVS_ROTATABLE_BOND>
3

> <PUBCHEM_CACTVS_SUBSKEYS>
AAADccByAABEAAAAAAAAAAAAAAAAAWAAAAAwYAAAAAAAAFgB9AAAHAYQAAAADArFXiS8wfLJkAigAzRnRACCgCAxDzAI2bw4ZpgIIOLhk5GEIAxgkADoyAcQgIAOAAAAAAADAAAAAAAAAAYAAAAAAAAAAA==

> <PUBCHEM_IUPAC_OPENEYE_NAME>
3-[(2-chlorophenyl)methylsulfanyl]-1H-indole

> <PUBCHEM_IUPAC_CAS_NAME>
3-[(2-chlorophenyl)methylthio]-1H-indole

> <PUBCHEM_IUPAC_NAME>
3-[(2-chlorophenyl)methylsulfanyl]-1H-indole

> <PUBCHEM_IUPAC_SYSTEMATIC_NAME>
3-[(2-chlorophenyl)methylsulfanyl]-1H-indole

> <PUBCHEM_IUPAC_TRADITIONAL_NAME>
3-[(2-chlorobenzyl)thio]-1H-indole

> <PUBCHEM_IUPAC_INCHI>
InChI=1S/C15H12ClNS/c16-13-7-3-1-5-11(13)10-18-15-9-17-14-8-4-2-6-12(14)15/h1-9,17H,10H2

> <PUBCHEM_IUPAC_INCHIKEY>
XXRUUHDPJJCWOK-UHFFFAOYSA-N

> <PUBCHEM_XLOGP3>
4.3

> <PUBCHEM_EXACT_MASS>
273.037898

> <PUBCHEM_MOLECULAR_FORMULA>
C15H12ClNS

> <PUBCHEM_MOLECULAR_WEIGHT>
273.78048

> <PUBCHEM_OPENEYE_CAN_SMILES>
C1=CC=C(C(=C1)CSC2=CNC3=CC=CC=C32)Cl

> <PUBCHEM_OPENEYE_ISO_SMILES>
C1=CC=C(C(=C1)CSC2=CNC3=CC=CC=C32)Cl

> <PUBCHEM_CACTVS_TPSA>
41.1

> <PUBCHEM_MONOISOTOPIC_WEIGHT>
273.037898

> <PUBCHEM_TOTAL_CHARGE>
0

> <PUBCHEM_HEAVY_ATOM_COUNT>
18

> <PUBCHEM_ATOM_DEF_STEREO_COUNT>
0

> <PUBCHEM_ATOM_UDEF_STEREO_COUNT>
0

> <PUBCHEM_BOND_DEF_STEREO_COUNT>
0

> <PUBCHEM_BOND_UDEF_STEREO_COUNT>
0

> <PUBCHEM_ISOTOPIC_ATOM_COUNT>
0

> <PUBCHEM_COMPONENT_COUNT>
1

> <PUBCHEM_CACTVS_TAUTO_COUNT>
1

> <PUBCHEM_COORDINATE_TYPE>
1
5
255

> <PUBCHEM_BONDANNOTATIONS>
10  13  8
11  14  8
11  15  8
12  13  8
14  16  8
15  17  8
16  18  8
17  18  8
3  5  8
3  7  8
4  5  8
4  6  8
4  9  8
5  10  8
6  7  8
9  12  8

$$$$
