6208330
  -OEChem-06111303392D

 52 53  0     0  0  0  0  0  0999 V2000
    6.3301   -1.3988    0.0000 S   0  0  0  0  0  0  0  0  0  0  0  0
    4.5981    2.6012    0.0000 F   0  0  0  0  0  0  0  0  0  0  0  0
    5.5981    1.6012    0.0000 F   0  0  0  0  0  0  0  0  0  0  0  0
    3.5981    1.6012    0.0000 F   0  0  0  0  0  0  0  0  0  0  0  0
   14.1719   -0.9920    0.0000 O   0  0  0  0  0  0  0  0  0  0  0  0
   10.6603    0.1012    0.0000 O   0  0  0  0  0  0  0  0  0  0  0  0
   16.4233   -2.4397    0.0000 O   0  5  0  0  0  0  0  0  0  0  0  0
   16.2423   -0.7171    0.0000 O   0  0  0  0  0  0  0  0  0  0  0  0
    4.5981   -1.3988    0.0000 N   0  0  0  0  0  0  0  0  0  0  0  0
    5.4641    0.1012    0.0000 N   0  0  0  0  0  0  0  0  0  0  0  0
    9.7942   -1.3988    0.0000 N   0  0  0  0  0  0  0  0  0  0  0  0
   15.8355   -1.6307    0.0000 N   0  3  0  0  0  0  0  0  0  0  0  0
    2.8660   -1.3988    0.0000 C   0  0  0  0  0  0  0  0  0  0  0  0
    3.7320   -0.8988    0.0000 C   0  0  0  0  0  0  0  0  0  0  0  0
    2.0000   -1.8988    0.0000 C   0  0  0  0  0  0  0  0  0  0  0  0
    3.3660   -2.2648    0.0000 C   0  0  0  0  0  0  0  0  0  0  0  0
    2.3660   -0.5328    0.0000 C   0  0  0  0  0  0  0  0  0  0  0  0
    3.7320    0.1012    0.0000 C   0  0  0  0  0  0  0  0  0  0  0  0
    4.5981    0.6012    0.0000 C   0  0  0  0  0  0  0  0  0  0  0  0
    5.4641   -0.8988    0.0000 C   0  0  0  0  0  0  0  0  0  0  0  0
    8.0622   -1.3988    0.0000 C   0  0  0  0  0  0  0  0  0  0  0  0
    7.1962   -0.8988    0.0000 C   0  0  0  0  0  0  0  0  0  0  0  0
    8.9282   -0.8988    0.0000 C   0  0  0  0  0  0  0  0  0  0  0  0
    4.5981    1.6012    0.0000 C   0  0  0  0  0  0  0  0  0  0  0  0
   10.6603   -0.8988    0.0000 C   0  0  0  0  0  0  0  0  0  0  0  0
   11.5263   -1.3988    0.0000 C   0  0  0  0  0  0  0  0  0  0  0  0
   12.3923   -0.8988    0.0000 C   0  0  0  0  0  0  0  0  0  0  0  0
   13.2583   -1.3988    0.0000 C   0  0  0  0  0  0  0  0  0  0  0  0
   13.3629   -2.3933    0.0000 C   0  0  0  0  0  0  0  0  0  0  0  0
   14.8410   -1.7352    0.0000 C   0  0  0  0  0  0  0  0  0  0  0  0
   14.3410   -2.6012    0.0000 C   0  0  0  0  0  0  0  0  0  0  0  0
    2.9030   -0.2228    0.0000 H   0  0  0  0  0  0  0  0  0  0  0  0
    1.6900   -1.3618    0.0000 H   0  0  0  0  0  0  0  0  0  0  0  0
    1.4631   -2.2088    0.0000 H   0  0  0  0  0  0  0  0  0  0  0  0
    2.3100   -2.4357    0.0000 H   0  0  0  0  0  0  0  0  0  0  0  0
    2.8291   -2.5748    0.0000 H   0  0  0  0  0  0  0  0  0  0  0  0
    3.6760   -2.8017    0.0000 H   0  0  0  0  0  0  0  0  0  0  0  0
    3.9030   -1.9548    0.0000 H   0  0  0  0  0  0  0  0  0  0  0  0
    2.0560    0.0042    0.0000 H   0  0  0  0  0  0  0  0  0  0  0  0
    1.8291   -0.8428    0.0000 H   0  0  0  0  0  0  0  0  0  0  0  0
    3.1951    0.4112    0.0000 H   0  0  0  0  0  0  0  0  0  0  0  0
    7.6636   -1.8737    0.0000 H   0  0  0  0  0  0  0  0  0  0  0  0
    8.4607   -1.8737    0.0000 H   0  0  0  0  0  0  0  0  0  0  0  0
    7.5947   -0.4238    0.0000 H   0  0  0  0  0  0  0  0  0  0  0  0
    6.7976   -0.4238    0.0000 H   0  0  0  0  0  0  0  0  0  0  0  0
    9.3267   -0.4238    0.0000 H   0  0  0  0  0  0  0  0  0  0  0  0
    8.5297   -0.4238    0.0000 H   0  0  0  0  0  0  0  0  0  0  0  0
    9.7942   -2.0188    0.0000 H   0  0  0  0  0  0  0  0  0  0  0  0
   11.5263   -2.0188    0.0000 H   0  0  0  0  0  0  0  0  0  0  0  0
   12.3923   -0.2788    0.0000 H   0  0  0  0  0  0  0  0  0  0  0  0
   12.9021   -2.8082    0.0000 H   0  0  0  0  0  0  0  0  0  0  0  0
   14.5932   -3.1676    0.0000 H   0  0  0  0  0  0  0  0  0  0  0  0
  1 20  1  0  0  0  0
  1 22  1  0  0  0  0
  2 24  1  0  0  0  0
  3 24  1  0  0  0  0
  4 24  1  0  0  0  0
  5 28  1  0  0  0  0
  5 30  1  0  0  0  0
  6 25  2  0  0  0  0
  7 12  1  0  0  0  0
  8 12  2  0  0  0  0
  9 14  1  0  0  0  0
  9 20  2  0  0  0  0
 10 19  2  0  0  0  0
 10 20  1  0  0  0  0
 11 23  1  0  0  0  0
 11 25  1  0  0  0  0
 11 48  1  0  0  0  0
 12 30  1  0  0  0  0
 13 14  1  0  0  0  0
 13 15  1  0  0  0  0
 13 16  1  0  0  0  0
 13 17  1  0  0  0  0
 14 18  2  0  0  0  0
 15 33  1  0  0  0  0
 15 34  1  0  0  0  0
 15 35  1  0  0  0  0
 16 36  1  0  0  0  0
 16 37  1  0  0  0  0
 16 38  1  0  0  0  0
 17 32  1  0  0  0  0
 17 39  1  0  0  0  0
 17 40  1  0  0  0  0
 18 19  1  0  0  0  0
 18 41  1  0  0  0  0
 19 24  1  0  0  0  0
 21 22  1  0  0  0  0
 21 23  1  0  0  0  0
 21 42  1  0  0  0  0
 21 43  1  0  0  0  0
 22 44  1  0  0  0  0
 22 45  1  0  0  0  0
 23 46  1  0  0  0  0
 23 47  1  0  0  0  0
 25 26  1  0  0  0  0
 26 27  2  0  0  0  0
 26 49  1  0  0  0  0
 27 28  1  0  0  0  0
 27 50  1  0  0  0  0
 28 29  2  0  0  0  0
 29 31  1  0  0  0  0
 29 51  1  0  0  0  0
 30 31  2  0  0  0  0
 31 52  1  0  0  0  0
M  CHG  2   7  -1  12   1
M  END
> <PUBCHEM_COMPOUND_CID>
6208330

> <PUBCHEM_COMPOUND_CANONICALIZED>
1

> <PUBCHEM_CACTVS_COMPLEXITY>
652

> <PUBCHEM_CACTVS_HBOND_ACCEPTOR>
10

> <PUBCHEM_CACTVS_HBOND_DONOR>
1

> <PUBCHEM_CACTVS_ROTATABLE_BOND>
8

> <PUBCHEM_CACTVS_SUBSKEYS>
AAADceB7uYBAAAAAAAAAAAAAAAAAASAAAAAsAAAAAAAAAAAB4AAAHwQUAAAADgzF1hSzlJbYVEipAaVydwCC2CltIrApmKE+bNqMLjLk/duOHSjs1hPI6ae8AAANAAAAAAAAAAAAAAAAAAAAAAAAAAAAAA==

> <PUBCHEM_IUPAC_OPENEYE_NAME>
(E)-N-[3-[4-tert-butyl-6-(trifluoromethyl)pyrimidin-2-yl]sulfanylpropyl]-3-(5-nitro-2-furyl)prop-2-enamide

> <PUBCHEM_IUPAC_CAS_NAME>
(E)-N-[3-[[4-tert-butyl-6-(trifluoromethyl)-2-pyrimidinyl]thio]propyl]-3-(5-nitro-2-furanyl)-2-propenamide

> <PUBCHEM_IUPAC_NAME>
(E)-N-[3-[4-tert-butyl-6-(trifluoromethyl)pyrimidin-2-yl]sulfanylpropyl]-3-(5-nitrofuran-2-yl)prop-2-enamide

> <PUBCHEM_IUPAC_SYSTEMATIC_NAME>
(E)-N-[3-[4-tert-butyl-6-(trifluoromethyl)pyrimidin-2-yl]sulfanylpropyl]-3-(5-nitrofuran-2-yl)prop-2-enamide

> <PUBCHEM_IUPAC_TRADITIONAL_NAME>
(E)-N-[3-[[4-tert-butyl-6-(trifluoromethyl)pyrimidin-2-yl]thio]propyl]-3-(5-nitro-2-furyl)acrylamide

> <PUBCHEM_IUPAC_INCHI>
InChI=1S/C19H21F3N4O4S/c1-18(2,3)13-11-14(19(20,21)22)25-17(24-13)31-10-4-9-23-15(27)7-5-12-6-8-16(30-12)26(28)29/h5-8,11H,4,9-10H2,1-3H3,(H,23,27)/b7-5+

> <PUBCHEM_IUPAC_INCHIKEY>
HVNZEIOWMBFYMG-FNORWQNLSA-N

> <PUBCHEM_XLOGP3>
4.8

> <PUBCHEM_EXACT_MASS>
458.123561

> <PUBCHEM_MOLECULAR_FORMULA>
C19H21F3N4O4S

> <PUBCHEM_MOLECULAR_WEIGHT>
458.45465

> <PUBCHEM_OPENEYE_CAN_SMILES>
CC(C)(C)C1=CC(=NC(=N1)SCCCNC(=O)C=CC2=CC=C(O2)[N+](=O)[O-])C(F)(F)F

> <PUBCHEM_OPENEYE_ISO_SMILES>
CC(C)(C)C1=CC(=NC(=N1)SCCCNC(=O)/C=C/C2=CC=C(O2)[N+](=O)[O-])C(F)(F)F

> <PUBCHEM_CACTVS_TPSA>
139

> <PUBCHEM_MONOISOTOPIC_WEIGHT>
458.123561

> <PUBCHEM_TOTAL_CHARGE>
0

> <PUBCHEM_HEAVY_ATOM_COUNT>
31

> <PUBCHEM_ATOM_DEF_STEREO_COUNT>
0

> <PUBCHEM_ATOM_UDEF_STEREO_COUNT>
0

> <PUBCHEM_BOND_DEF_STEREO_COUNT>
1

> <PUBCHEM_BOND_UDEF_STEREO_COUNT>
0

> <PUBCHEM_ISOTOPIC_ATOM_COUNT>
0

> <PUBCHEM_COMPONENT_COUNT>
1

> <PUBCHEM_CACTVS_TAUTO_COUNT>
2

> <PUBCHEM_COORDINATE_TYPE>
1
5
255

> <PUBCHEM_BONDANNOTATIONS>
10  19  8
10  20  8
14  18  8
18  19  8
28  29  8
29  31  8
30  31  8
5  28  8
5  30  8
9  14  8
9  20  8

$$$$
6212307
  -OEChem-06111303392D

 33 34  0     0  0  0  0  0  0999 V2000
    4.5981    1.5000    0.0000 O   0  0  0  0  0  0  0  0  0  0  0  0
    2.8660    1.5000    0.0000 N   0  0  0  0  0  0  0  0  0  0  0  0
    2.8660   -1.5000    0.0000 C   0  0  0  0  0  0  0  0  0  0  0  0
    2.8660   -2.5000    0.0000 C   0  0  0  0  0  0  0  0  0  0  0  0
    2.8660    0.5000    0.0000 C   0  0  0  0  0  0  0  0  0  0  0  0
    3.7320   -1.0000    0.0000 C   0  0  0  0  0  0  0  0  0  0  0  0
    2.0000   -1.0000    0.0000 C   0  0  0  0  0  0  0  0  0  0  0  0
    3.7320    0.0000    0.0000 C   0  0  0  0  0  0  0  0  0  0  0  0
    2.0000    0.0000    0.0000 C   0  0  0  0  0  0  0  0  0  0  0  0
    2.0000   -3.0000    0.0000 C   0  0  0  0  0  0  0  0  0  0  0  0
    3.7320   -3.0000    0.0000 C   0  0  0  0  0  0  0  0  0  0  0  0
    2.0000   -4.0000    0.0000 C   0  0  0  0  0  0  0  0  0  0  0  0
    3.7320   -4.0000    0.0000 C   0  0  0  0  0  0  0  0  0  0  0  0
    2.8660   -4.5000    0.0000 C   0  0  0  0  0  0  0  0  0  0  0  0
    3.7320    2.0000    0.0000 C   0  0  0  0  0  0  0  0  0  0  0  0
    3.7320    3.0000    0.0000 C   0  0  0  0  0  0  0  0  0  0  0  0
    4.5981    3.5000    0.0000 C   0  0  0  0  0  0  0  0  0  0  0  0
    4.5981    4.5000    0.0000 C   0  0  0  0  0  0  0  0  0  0  0  0
    4.2690   -1.3100    0.0000 H   0  0  0  0  0  0  0  0  0  0  0  0
    1.4631   -1.3100    0.0000 H   0  0  0  0  0  0  0  0  0  0  0  0
    4.2690    0.3100    0.0000 H   0  0  0  0  0  0  0  0  0  0  0  0
    1.4631    0.3100    0.0000 H   0  0  0  0  0  0  0  0  0  0  0  0
    1.4631   -2.6900    0.0000 H   0  0  0  0  0  0  0  0  0  0  0  0
    4.2690   -2.6900    0.0000 H   0  0  0  0  0  0  0  0  0  0  0  0
    2.3291    1.8100    0.0000 H   0  0  0  0  0  0  0  0  0  0  0  0
    1.4631   -4.3100    0.0000 H   0  0  0  0  0  0  0  0  0  0  0  0
    4.2690   -4.3100    0.0000 H   0  0  0  0  0  0  0  0  0  0  0  0
    2.8660   -5.1200    0.0000 H   0  0  0  0  0  0  0  0  0  0  0  0
    3.1951    3.3100    0.0000 H   0  0  0  0  0  0  0  0  0  0  0  0
    5.1350    3.1900    0.0000 H   0  0  0  0  0  0  0  0  0  0  0  0
    5.2181    4.5000    0.0000 H   0  0  0  0  0  0  0  0  0  0  0  0
    4.5981    5.1200    0.0000 H   0  0  0  0  0  0  0  0  0  0  0  0
    3.9781    4.5000    0.0000 H   0  0  0  0  0  0  0  0  0  0  0  0
  1 15  2  0  0  0  0
  2  5  1  0  0  0  0
  2 15  1  0  0  0  0
  2 25  1  0  0  0  0
  3  4  1  0  0  0  0
  3  6  2  0  0  0  0
  3  7  1  0  0  0  0
  4 10  2  0  0  0  0
  4 11  1  0  0  0  0
  5  8  2  0  0  0  0
  5  9  1  0  0  0  0
  6  8  1  0  0  0  0
  6 19  1  0  0  0  0
  7  9  2  0  0  0  0
  7 20  1  0  0  0  0
  8 21  1  0  0  0  0
  9 22  1  0  0  0  0
 10 12  1  0  0  0  0
 10 23  1  0  0  0  0
 11 13  2  0  0  0  0
 11 24  1  0  0  0  0
 12 14  2  0  0  0  0
 12 26  1  0  0  0  0
 13 14  1  0  0  0  0
 13 27  1  0  0  0  0
 14 28  1  0  0  0  0
 15 16  1  0  0  0  0
 16 17  2  0  0  0  0
 16 29  1  0  0  0  0
 17 18  1  0  0  0  0
 17 30  1  0  0  0  0
 18 31  1  0  0  0  0
 18 32  1  0  0  0  0
 18 33  1  0  0  0  0
M  END
> <PUBCHEM_COMPOUND_CID>
6212307

> <PUBCHEM_COMPOUND_CANONICALIZED>
1

> <PUBCHEM_CACTVS_COMPLEXITY>
284

> <PUBCHEM_CACTVS_HBOND_ACCEPTOR>
1

> <PUBCHEM_CACTVS_HBOND_DONOR>
1

> <PUBCHEM_CACTVS_ROTATABLE_BOND>
3

> <PUBCHEM_CACTVS_SUBSKEYS>
AAADccB6IAAAAAAAAAAAAAAAAAAAAAAAAAAwYAAAAAAAAAABQAAAHgAQAAAADAiBmAAywILAAACIAiVSUACCAAAhAgAIiAAAZMgIICLAkZGEIAhglADIyYcQgMAOiAAAAAAAAAAQAAAAAAAAAAAAAAAAAA==

> <PUBCHEM_IUPAC_OPENEYE_NAME>
(E)-N-(4-phenylphenyl)but-2-enamide

> <PUBCHEM_IUPAC_CAS_NAME>
(E)-N-(4-phenylphenyl)-2-butenamide

> <PUBCHEM_IUPAC_NAME>
(E)-N-(4-phenylphenyl)but-2-enamide

> <PUBCHEM_IUPAC_SYSTEMATIC_NAME>
(E)-N-(4-phenylphenyl)but-2-enamide

> <PUBCHEM_IUPAC_TRADITIONAL_NAME>
(E)-N-(4-phenylphenyl)but-2-enamide

> <PUBCHEM_IUPAC_INCHI>
InChI=1S/C16H15NO/c1-2-6-16(18)17-15-11-9-14(10-12-15)13-7-4-3-5-8-13/h2-12H,1H3,(H,17,18)/b6-2+

> <PUBCHEM_IUPAC_INCHIKEY>
WZYWSDZYMUATCD-QHHAFSJGSA-N

> <PUBCHEM_XLOGP3>
4

> <PUBCHEM_EXACT_MASS>
237.115364

> <PUBCHEM_MOLECULAR_FORMULA>
C16H15NO

> <PUBCHEM_MOLECULAR_WEIGHT>
237.2964

> <PUBCHEM_OPENEYE_CAN_SMILES>
CC=CC(=O)NC1=CC=C(C=C1)C2=CC=CC=C2

> <PUBCHEM_OPENEYE_ISO_SMILES>
C/C=C/C(=O)NC1=CC=C(C=C1)C2=CC=CC=C2

> <PUBCHEM_CACTVS_TPSA>
29.1

> <PUBCHEM_MONOISOTOPIC_WEIGHT>
237.115364

> <PUBCHEM_TOTAL_CHARGE>
0

> <PUBCHEM_HEAVY_ATOM_COUNT>
18

> <PUBCHEM_ATOM_DEF_STEREO_COUNT>
0

> <PUBCHEM_ATOM_UDEF_STEREO_COUNT>
0

> <PUBCHEM_BOND_DEF_STEREO_COUNT>
1

> <PUBCHEM_BOND_UDEF_STEREO_COUNT>
0

> <PUBCHEM_ISOTOPIC_ATOM_COUNT>
0

> <PUBCHEM_COMPONENT_COUNT>
1

> <PUBCHEM_CACTVS_TAUTO_COUNT>
2

> <PUBCHEM_COORDINATE_TYPE>
1
5
255

> <PUBCHEM_BONDANNOTATIONS>
10  12  8
11  13  8
12  14  8
13  14  8
3  6  8
3  7  8
4  10  8
4  11  8
5  8  8
5  9  8
6  8  8
7  9  8

$$$$
6219474
  -OEChem-06111303402D

 34 36  0     0  0  0  0  0  0999 V2000
    8.0622   -0.2673    0.0000 N   0  0  0  0  0  0  0  0  0  0  0  0
    8.9282    1.2327    0.0000 C   0  0  0  0  0  0  0  0  0  0  0  0
    8.9282    0.2327    0.0000 C   0  0  0  0  0  0  0  0  0  0  0  0
    7.1962    0.2327    0.0000 C   0  0  0  0  0  0  0  0  0  0  0  0
    4.5981   -0.2673    0.0000 C   0  0  0  0  0  0  0  0  0  0  0  0
    8.0622    1.7327    0.0000 C   0  0  0  0  0  0  0  0  0  0  0  0
    7.1962    1.2327    0.0000 C   0  0  0  0  0  0  0  0  0  0  0  0
    6.3301   -0.2673    0.0000 C   0  0  0  0  0  0  0  0  0  0  0  0
    2.8660   -1.2673    0.0000 C   0  0  0  0  0  0  0  0  0  0  0  0
    9.8222    1.7673    0.0000 C   0  0  0  0  0  0  0  0  0  0  0  0
    5.4641    0.2327    0.0000 C   0  0  0  0  0  0  0  0  0  0  0  0
    9.8222   -0.3020    0.0000 C   0  0  0  0  0  0  0  0  0  0  0  0
    3.7320    0.2327    0.0000 C   0  0  0  0  0  0  0  0  0  0  0  0
    4.5981   -1.2673    0.0000 C   0  0  0  0  0  0  0  0  0  0  0  0
    2.8660   -0.2673    0.0000 C   0  0  0  0  0  0  0  0  0  0  0  0
    3.7320   -1.7673    0.0000 C   0  0  0  0  0  0  0  0  0  0  0  0
   10.7282    1.2535    0.0000 C   0  0  0  0  0  0  0  0  0  0  0  0
   10.7282    0.2119    0.0000 C   0  0  0  0  0  0  0  0  0  0  0  0
    2.0000   -1.7673    0.0000 C   0  0  0  0  0  0  0  0  0  0  0  0
    8.0622    2.3527    0.0000 H   0  0  0  0  0  0  0  0  0  0  0  0
    6.6592    1.5427    0.0000 H   0  0  0  0  0  0  0  0  0  0  0  0
    6.3301   -0.8873    0.0000 H   0  0  0  0  0  0  0  0  0  0  0  0
    9.8150    2.3873    0.0000 H   0  0  0  0  0  0  0  0  0  0  0  0
    5.4641    0.8527    0.0000 H   0  0  0  0  0  0  0  0  0  0  0  0
    9.8150   -0.9220    0.0000 H   0  0  0  0  0  0  0  0  0  0  0  0
    3.7320    0.8527    0.0000 H   0  0  0  0  0  0  0  0  0  0  0  0
    5.1350   -1.5773    0.0000 H   0  0  0  0  0  0  0  0  0  0  0  0
    2.3291    0.0427    0.0000 H   0  0  0  0  0  0  0  0  0  0  0  0
    3.7320   -2.3873    0.0000 H   0  0  0  0  0  0  0  0  0  0  0  0
   11.2639    1.5656    0.0000 H   0  0  0  0  0  0  0  0  0  0  0  0
   11.2639   -0.1002    0.0000 H   0  0  0  0  0  0  0  0  0  0  0  0
    1.6900   -1.2304    0.0000 H   0  0  0  0  0  0  0  0  0  0  0  0
    1.4631   -2.0773    0.0000 H   0  0  0  0  0  0  0  0  0  0  0  0
    2.3100   -2.3043    0.0000 H   0  0  0  0  0  0  0  0  0  0  0  0
  1  3  1  0  0  0  0
  1  4  2  0  0  0  0
  2  3  1  0  0  0  0
  2  6  1  0  0  0  0
  2 10  2  0  0  0  0
  3 12  2  0  0  0  0
  4  7  1  0  0  0  0
  4  8  1  0  0  0  0
  5 11  1  0  0  0  0
  5 13  2  0  0  0  0
  5 14  1  0  0  0  0
  6  7  2  0  0  0  0
  6 20  1  0  0  0  0
  7 21  1  0  0  0  0
  8 11  2  0  0  0  0
  8 22  1  0  0  0  0
  9 15  2  0  0  0  0
  9 16  1  0  0  0  0
  9 19  1  0  0  0  0
 10 17  1  0  0  0  0
 10 23  1  0  0  0  0
 11 24  1  0  0  0  0
 12 18  1  0  0  0  0
 12 25  1  0  0  0  0
 13 15  1  0  0  0  0
 13 26  1  0  0  0  0
 14 16  2  0  0  0  0
 14 27  1  0  0  0  0
 15 28  1  0  0  0  0
 16 29  1  0  0  0  0
 17 18  2  0  0  0  0
 17 30  1  0  0  0  0
 18 31  1  0  0  0  0
 19 32  1  0  0  0  0
 19 33  1  0  0  0  0
 19 34  1  0  0  0  0
M  END
> <PUBCHEM_COMPOUND_CID>
6219474

> <PUBCHEM_COMPOUND_CANONICALIZED>
1

> <PUBCHEM_CACTVS_COMPLEXITY>
301

> <PUBCHEM_CACTVS_HBOND_ACCEPTOR>
1

> <PUBCHEM_CACTVS_HBOND_DONOR>
0

> <PUBCHEM_CACTVS_ROTATABLE_BOND>
2

> <PUBCHEM_CACTVS_SUBSKEYS>
AAADccB6AAAAAAAAAAAAAAAAAAAAAAAAAAA8YIAAAAAAAACx9AAAHAAAAAAADAiBHgAywPIIEACgAyRiRACCgCAhAiAImCAwZJgIIOLAkZGEIAhggADIyAcQgIAOQAAAAAACAACAAAAAAAQAAAAAAAAAAA==

> <PUBCHEM_IUPAC_OPENEYE_NAME>
2-[(E)-2-(p-tolyl)vinyl]quinoline

> <PUBCHEM_IUPAC_CAS_NAME>
2-[(E)-2-(4-methylphenyl)ethenyl]quinoline

> <PUBCHEM_IUPAC_NAME>
2-[(E)-2-(4-methylphenyl)ethenyl]quinoline

> <PUBCHEM_IUPAC_SYSTEMATIC_NAME>
2-[(E)-2-(4-methylphenyl)ethenyl]quinoline

> <PUBCHEM_IUPAC_TRADITIONAL_NAME>
2-[(E)-2-(p-tolyl)vinyl]quinoline

> <PUBCHEM_IUPAC_INCHI>
InChI=1S/C18H15N/c1-14-6-8-15(9-7-14)10-12-17-13-11-16-4-2-3-5-18(16)19-17/h2-13H,1H3/b12-10+

> <PUBCHEM_IUPAC_INCHIKEY>
MOXMLJIFOABOBX-ZRDIBKRKSA-N

> <PUBCHEM_XLOGP3>
4.9

> <PUBCHEM_EXACT_MASS>
245.120449

> <PUBCHEM_MOLECULAR_FORMULA>
C18H15N

> <PUBCHEM_MOLECULAR_WEIGHT>
245.3184

> <PUBCHEM_OPENEYE_CAN_SMILES>
CC1=CC=C(C=C1)C=CC2=NC3=CC=CC=C3C=C2

> <PUBCHEM_OPENEYE_ISO_SMILES>
CC1=CC=C(C=C1)/C=C/C2=NC3=CC=CC=C3C=C2

> <PUBCHEM_CACTVS_TPSA>
12.9

> <PUBCHEM_MONOISOTOPIC_WEIGHT>
245.120449

> <PUBCHEM_TOTAL_CHARGE>
0

> <PUBCHEM_HEAVY_ATOM_COUNT>
19

> <PUBCHEM_ATOM_DEF_STEREO_COUNT>
0

> <PUBCHEM_ATOM_UDEF_STEREO_COUNT>
0

> <PUBCHEM_BOND_DEF_STEREO_COUNT>
1

> <PUBCHEM_BOND_UDEF_STEREO_COUNT>
0

> <PUBCHEM_ISOTOPIC_ATOM_COUNT>
0

> <PUBCHEM_COMPONENT_COUNT>
1

> <PUBCHEM_CACTVS_TAUTO_COUNT>
1

> <PUBCHEM_COORDINATE_TYPE>
1
5
255

> <PUBCHEM_BONDANNOTATIONS>
1  3  8
1  4  8
10  17  8
12  18  8
13  15  8
14  16  8
17  18  8
2  10  8
2  3  8
2  6  8
3  12  8
4  7  8
5  13  8
5  14  8
6  7  8
9  15  8
9  16  8

$$$$
6223850
  -OEChem-06111303402D

 43 45  0     0  0  0  0  0  0999 V2000
    8.9282    2.6830    0.0000 O   0  0  0  0  0  0  0  0  0  0  0  0
    8.9282   -0.3170    0.0000 N   0  0  0  0  0  0  0  0  0  0  0  0
    8.0622    1.1830    0.0000 N   0  0  0  0  0  0  0  0  0  0  0  0
    2.8660   -1.8170    0.0000 C   0  0  0  0  0  0  0  0  0  0  0  0
    3.7320   -1.3170    0.0000 C   0  0  0  0  0  0  0  0  0  0  0  0
    2.0000   -2.3170    0.0000 C   0  0  0  0  0  0  0  0  0  0  0  0
    2.3660   -0.9510    0.0000 C   0  0  0  0  0  0  0  0  0  0  0  0
    3.3660   -2.6830    0.0000 C   0  0  0  0  0  0  0  0  0  0  0  0
    4.5981   -1.8170    0.0000 C   0  0  0  0  0  0  0  0  0  0  0  0
    3.7320   -0.3170    0.0000 C   0  0  0  0  0  0  0  0  0  0  0  0
    5.4641   -0.3170    0.0000 C   0  0  0  0  0  0  0  0  0  0  0  0
    5.4641   -1.3170    0.0000 C   0  0  0  0  0  0  0  0  0  0  0  0
    4.5981    0.1830    0.0000 C   0  0  0  0  0  0  0  0  0  0  0  0
    6.3301    0.1830    0.0000 C   0  0  0  0  0  0  0  0  0  0  0  0
    9.7942    0.1830    0.0000 C   0  0  0  0  0  0  0  0  0  0  0  0
    7.1962   -0.3170    0.0000 C   0  0  0  0  0  0  0  0  0  0  0  0
    8.0622    0.1830    0.0000 C   0  0  0  0  0  0  0  0  0  0  0  0
    9.7942    1.1830    0.0000 C   0  0  0  0  0  0  0  0  0  0  0  0
   10.6882   -0.3516    0.0000 C   0  0  0  0  0  0  0  0  0  0  0  0
    8.9282    1.6830    0.0000 C   0  0  0  0  0  0  0  0  0  0  0  0
   10.6882    1.7177    0.0000 C   0  0  0  0  0  0  0  0  0  0  0  0
   11.5942    0.1622    0.0000 C   0  0  0  0  0  0  0  0  0  0  0  0
   11.5942    1.2038    0.0000 C   0  0  0  0  0  0  0  0  0  0  0  0
    2.8291   -2.9930    0.0000 H   0  0  0  0  0  0  0  0  0  0  0  0
    1.6900   -1.7800    0.0000 H   0  0  0  0  0  0  0  0  0  0  0  0
    1.4631   -2.6270    0.0000 H   0  0  0  0  0  0  0  0  0  0  0  0
    2.3100   -2.8539    0.0000 H   0  0  0  0  0  0  0  0  0  0  0  0
    2.9030   -0.6410    0.0000 H   0  0  0  0  0  0  0  0  0  0  0  0
    2.0560   -0.4140    0.0000 H   0  0  0  0  0  0  0  0  0  0  0  0
    1.8291   -1.2610    0.0000 H   0  0  0  0  0  0  0  0  0  0  0  0
    3.6760   -3.2200    0.0000 H   0  0  0  0  0  0  0  0  0  0  0  0
    3.9030   -2.3730    0.0000 H   0  0  0  0  0  0  0  0  0  0  0  0
    4.5981   -2.4370    0.0000 H   0  0  0  0  0  0  0  0  0  0  0  0
    3.1951   -0.0070    0.0000 H   0  0  0  0  0  0  0  0  0  0  0  0
    6.0010   -1.6270    0.0000 H   0  0  0  0  0  0  0  0  0  0  0  0
    4.5981    0.8030    0.0000 H   0  0  0  0  0  0  0  0  0  0  0  0
    6.3301    0.8030    0.0000 H   0  0  0  0  0  0  0  0  0  0  0  0
    7.1962   -0.9370    0.0000 H   0  0  0  0  0  0  0  0  0  0  0  0
    8.9282   -0.9370    0.0000 H   0  0  0  0  0  0  0  0  0  0  0  0
   10.6810   -0.9716    0.0000 H   0  0  0  0  0  0  0  0  0  0  0  0
   10.6810    2.3376    0.0000 H   0  0  0  0  0  0  0  0  0  0  0  0
   12.1300   -0.1499    0.0000 H   0  0  0  0  0  0  0  0  0  0  0  0
   12.1300    1.5159    0.0000 H   0  0  0  0  0  0  0  0  0  0  0  0
  1 20  2  0  0  0  0
  2 15  1  0  0  0  0
  2 17  1  0  0  0  0
  2 39  1  0  0  0  0
  3 17  2  0  0  0  0
  3 20  1  0  0  0  0
  4  5  1  0  0  0  0
  4  6  1  0  0  0  0
  4  7  1  0  0  0  0
  4  8  1  0  0  0  0
  5  9  2  0  0  0  0
  5 10  1  0  0  0  0
  6 25  1  0  0  0  0
  6 26  1  0  0  0  0
  6 27  1  0  0  0  0
  7 28  1  0  0  0  0
  7 29  1  0  0  0  0
  7 30  1  0  0  0  0
  8 24  1  0  0  0  0
  8 31  1  0  0  0  0
  8 32  1  0  0  0  0
  9 12  1  0  0  0  0
  9 33  1  0  0  0  0
 10 13  2  0  0  0  0
 10 34  1  0  0  0  0
 11 12  2  0  0  0  0
 11 13  1  0  0  0  0
 11 14  1  0  0  0  0
 12 35  1  0  0  0  0
 13 36  1  0  0  0  0
 14 16  2  0  0  0  0
 14 37  1  0  0  0  0
 15 18  1  0  0  0  0
 15 19  2  0  0  0  0
 16 17  1  0  0  0  0
 16 38  1  0  0  0  0
 18 20  1  0  0  0  0
 18 21  2  0  0  0  0
 19 22  1  0  0  0  0
 19 40  1  0  0  0  0
 21 23  1  0  0  0  0
 21 41  1  0  0  0  0
 22 23  2  0  0  0  0
 22 42  1  0  0  0  0
 23 43  1  0  0  0  0
M  END
> <PUBCHEM_COMPOUND_CID>
6223850

> <PUBCHEM_COMPOUND_CANONICALIZED>
1

> <PUBCHEM_CACTVS_COMPLEXITY>
492

> <PUBCHEM_CACTVS_HBOND_ACCEPTOR>
1

> <PUBCHEM_CACTVS_HBOND_DONOR>
1

> <PUBCHEM_CACTVS_ROTATABLE_BOND>
3

> <PUBCHEM_CACTVS_SUBSKEYS>
AAADceB7IAAAAAAAAAAAAAAAAAAAAAAAAAAwYIAAAAAAAACBQAAAHgAQAAAADgiBmAAzwILAAACoAidydACCAAElAgAJiAEQZNgIIDrA3ZGEIYhgkADIyccYiMCPwAAAAAACAACAAAAAAAQAAAAAAAAAAA==

> <PUBCHEM_IUPAC_OPENEYE_NAME>
2-[(E)-2-(4-tert-butylphenyl)vinyl]-1H-quinazolin-4-one

> <PUBCHEM_IUPAC_CAS_NAME>
2-[(E)-2-(4-tert-butylphenyl)ethenyl]-1H-quinazolin-4-one

> <PUBCHEM_IUPAC_NAME>
2-[(E)-2-(4-tert-butylphenyl)ethenyl]-1H-quinazolin-4-one

> <PUBCHEM_IUPAC_SYSTEMATIC_NAME>
2-[(E)-2-(4-tert-butylphenyl)ethenyl]-1H-quinazolin-4-one

> <PUBCHEM_IUPAC_TRADITIONAL_NAME>
2-[(E)-2-(4-tert-butylphenyl)vinyl]-1H-quinazolin-4-one

> <PUBCHEM_IUPAC_INCHI>
InChI=1S/C20H20N2O/c1-20(2,3)15-11-8-14(9-12-15)10-13-18-21-17-7-5-4-6-16(17)19(23)22-18/h4-13H,1-3H3,(H,21,22,23)/b13-10+

> <PUBCHEM_IUPAC_INCHIKEY>
VBRBYDUYDPVIBE-JLHYYAGUSA-N

> <PUBCHEM_XLOGP3>
4.9

> <PUBCHEM_EXACT_MASS>
304.157563

> <PUBCHEM_MOLECULAR_FORMULA>
C20H20N2O

> <PUBCHEM_MOLECULAR_WEIGHT>
304.3856

> <PUBCHEM_OPENEYE_CAN_SMILES>
CC(C)(C)C1=CC=C(C=C1)C=CC2=NC(=O)C3=CC=CC=C3N2

> <PUBCHEM_OPENEYE_ISO_SMILES>
CC(C)(C)C1=CC=C(C=C1)/C=C/C2=NC(=O)C3=CC=CC=C3N2

> <PUBCHEM_CACTVS_TPSA>
41.5

> <PUBCHEM_MONOISOTOPIC_WEIGHT>
304.157563

> <PUBCHEM_TOTAL_CHARGE>
0

> <PUBCHEM_HEAVY_ATOM_COUNT>
23

> <PUBCHEM_ATOM_DEF_STEREO_COUNT>
0

> <PUBCHEM_ATOM_UDEF_STEREO_COUNT>
0

> <PUBCHEM_BOND_DEF_STEREO_COUNT>
1

> <PUBCHEM_BOND_UDEF_STEREO_COUNT>
0

> <PUBCHEM_ISOTOPIC_ATOM_COUNT>
0

> <PUBCHEM_COMPONENT_COUNT>
1

> <PUBCHEM_CACTVS_TAUTO_COUNT>
3

> <PUBCHEM_COORDINATE_TYPE>
1
5
255

> <PUBCHEM_BONDANNOTATIONS>
10  13  8
11  12  8
11  13  8
15  18  8
15  19  8
18  20  8
18  21  8
19  22  8
2  15  8
2  17  8
21  23  8
22  23  8
3  17  8
3  20  8
5  10  8
5  9  8
9  12  8

$$$$
6224030
  -OEChem-06111303402D

 34 36  0     0  0  0  0  0  0999 V2000
    6.3301   -1.7500    0.0000 Cl  0  0  0  0  0  0  0  0  0  0  0  0
    8.0622    2.2500    0.0000 O   0  0  0  0  0  0  0  0  0  0  0  0
    8.0622   -0.7500    0.0000 N   0  0  0  0  0  0  0  0  0  0  0  0
    7.1962    0.7500    0.0000 N   0  0  0  0  0  0  0  0  0  0  0  0
    8.9282   -0.2500    0.0000 C   0  0  0  0  0  0  0  0  0  0  0  0
    8.9282    0.7500    0.0000 C   0  0  0  0  0  0  0  0  0  0  0  0
    7.1962   -0.2500    0.0000 C   0  0  0  0  0  0  0  0  0  0  0  0
    4.5981   -0.7500    0.0000 C   0  0  0  0  0  0  0  0  0  0  0  0
    9.8222   -0.7847    0.0000 C   0  0  0  0  0  0  0  0  0  0  0  0
    9.8222    1.2847    0.0000 C   0  0  0  0  0  0  0  0  0  0  0  0
    8.0622    1.2500    0.0000 C   0  0  0  0  0  0  0  0  0  0  0  0
    6.3301   -0.7500    0.0000 C   0  0  0  0  0  0  0  0  0  0  0  0
    2.8660   -0.7500    0.0000 C   0  0  0  0  0  0  0  0  0  0  0  0
    5.4641   -0.2500    0.0000 C   0  0  0  0  0  0  0  0  0  0  0  0
    3.7320   -0.2500    0.0000 C   0  0  0  0  0  0  0  0  0  0  0  0
   10.7282   -0.2708    0.0000 C   0  0  0  0  0  0  0  0  0  0  0  0
   10.7282    0.7708    0.0000 C   0  0  0  0  0  0  0  0  0  0  0  0
    4.5981   -1.7500    0.0000 C   0  0  0  0  0  0  0  0  0  0  0  0
    2.8660   -1.7500    0.0000 C   0  0  0  0  0  0  0  0  0  0  0  0
    3.7320   -2.2500    0.0000 C   0  0  0  0  0  0  0  0  0  0  0  0
    2.0000   -0.2500    0.0000 C   0  0  0  0  0  0  0  0  0  0  0  0
    8.0622   -1.3700    0.0000 H   0  0  0  0  0  0  0  0  0  0  0  0
    9.8150   -1.4046    0.0000 H   0  0  0  0  0  0  0  0  0  0  0  0
    9.8150    1.9046    0.0000 H   0  0  0  0  0  0  0  0  0  0  0  0
    5.4641    0.3700    0.0000 H   0  0  0  0  0  0  0  0  0  0  0  0
    3.7320    0.3700    0.0000 H   0  0  0  0  0  0  0  0  0  0  0  0
   11.2639   -0.5829    0.0000 H   0  0  0  0  0  0  0  0  0  0  0  0
   11.2639    1.0829    0.0000 H   0  0  0  0  0  0  0  0  0  0  0  0
    5.1350   -2.0600    0.0000 H   0  0  0  0  0  0  0  0  0  0  0  0
    2.3291   -2.0600    0.0000 H   0  0  0  0  0  0  0  0  0  0  0  0
    3.7320   -2.8700    0.0000 H   0  0  0  0  0  0  0  0  0  0  0  0
    2.3100    0.2869    0.0000 H   0  0  0  0  0  0  0  0  0  0  0  0
    1.4631    0.0600    0.0000 H   0  0  0  0  0  0  0  0  0  0  0  0
    1.6900   -0.7869    0.0000 H   0  0  0  0  0  0  0  0  0  0  0  0
  1 12  1  0  0  0  0
  2 11  2  0  0  0  0
  3  5  1  0  0  0  0
  3  7  1  0  0  0  0
  3 22  1  0  0  0  0
  4  7  2  0  0  0  0
  4 11  1  0  0  0  0
  5  6  1  0  0  0  0
  5  9  2  0  0  0  0
  6 10  2  0  0  0  0
  6 11  1  0  0  0  0
  7 12  1  0  0  0  0
  8 14  1  0  0  0  0
  8 15  1  0  0  0  0
  8 18  2  0  0  0  0
  9 16  1  0  0  0  0
  9 23  1  0  0  0  0
 10 17  1  0  0  0  0
 10 24  1  0  0  0  0
 12 14  2  0  0  0  0
 13 15  2  0  0  0  0
 13 19  1  0  0  0  0
 13 21  1  0  0  0  0
 14 25  1  0  0  0  0
 15 26  1  0  0  0  0
 16 17  2  0  0  0  0
 16 27  1  0  0  0  0
 17 28  1  0  0  0  0
 18 20  1  0  0  0  0
 18 29  1  0  0  0  0
 19 20  2  0  0  0  0
 19 30  1  0  0  0  0
 20 31  1  0  0  0  0
 21 32  1  0  0  0  0
 21 33  1  0  0  0  0
 21 34  1  0  0  0  0
M  END
> <PUBCHEM_COMPOUND_CID>
6224030

> <PUBCHEM_COMPOUND_CANONICALIZED>
1

> <PUBCHEM_CACTVS_COMPLEXITY>
471

> <PUBCHEM_CACTVS_HBOND_ACCEPTOR>
1

> <PUBCHEM_CACTVS_HBOND_DONOR>
1

> <PUBCHEM_CACTVS_ROTATABLE_BOND>
2

> <PUBCHEM_CACTVS_SUBSKEYS>
AAADccB7IAAEAAAAAAAAAAAAAAAAAAAAAAAwYIAAAAAAAACBQAAAHgIQAAAADAqBmAAzwILAAACoAidydACCAAElAgAJiAEAZNgIIDrA3ZHEIYhgkADIyccYiECOAAACAAACAAAAAAQAAAQAAAAAAAAAAA==

> <PUBCHEM_IUPAC_OPENEYE_NAME>
2-[(Z)-1-chloro-2-(m-tolyl)vinyl]-1H-quinazolin-4-one

> <PUBCHEM_IUPAC_CAS_NAME>
2-[(Z)-1-chloro-2-(3-methylphenyl)ethenyl]-1H-quinazolin-4-one

> <PUBCHEM_IUPAC_NAME>
2-[(Z)-1-chloro-2-(3-methylphenyl)ethenyl]-1H-quinazolin-4-one

> <PUBCHEM_IUPAC_SYSTEMATIC_NAME>
2-[(Z)-1-chloranyl-2-(3-methylphenyl)ethenyl]-1H-quinazolin-4-one

> <PUBCHEM_IUPAC_TRADITIONAL_NAME>
2-[(Z)-1-chloro-2-(m-tolyl)vinyl]-1H-quinazolin-4-one

> <PUBCHEM_IUPAC_INCHI>
InChI=1S/C17H13ClN2O/c1-11-5-4-6-12(9-11)10-14(18)16-19-15-8-3-2-7-13(15)17(21)20-16/h2-10H,1H3,(H,19,20,21)/b14-10-

> <PUBCHEM_IUPAC_INCHIKEY>
JBXNUSHBVOQUJO-UVTDQMKNSA-N

> <PUBCHEM_XLOGP3>
4.5

> <PUBCHEM_EXACT_MASS>
296.071641

> <PUBCHEM_MOLECULAR_FORMULA>
C17H13ClN2O

> <PUBCHEM_MOLECULAR_WEIGHT>
296.75092

> <PUBCHEM_OPENEYE_CAN_SMILES>
CC1=CC=CC(=C1)C=C(C2=NC(=O)C3=CC=CC=C3N2)Cl

> <PUBCHEM_OPENEYE_ISO_SMILES>
CC1=CC=CC(=C1)/C=C(/C2=NC(=O)C3=CC=CC=C3N2)\Cl

> <PUBCHEM_CACTVS_TPSA>
41.5

> <PUBCHEM_MONOISOTOPIC_WEIGHT>
296.071641

> <PUBCHEM_TOTAL_CHARGE>
0

> <PUBCHEM_HEAVY_ATOM_COUNT>
21

> <PUBCHEM_ATOM_DEF_STEREO_COUNT>
0

> <PUBCHEM_ATOM_UDEF_STEREO_COUNT>
0

> <PUBCHEM_BOND_DEF_STEREO_COUNT>
1

> <PUBCHEM_BOND_UDEF_STEREO_COUNT>
0

> <PUBCHEM_ISOTOPIC_ATOM_COUNT>
0

> <PUBCHEM_COMPONENT_COUNT>
1

> <PUBCHEM_CACTVS_TAUTO_COUNT>
3

> <PUBCHEM_COORDINATE_TYPE>
1
5
255

> <PUBCHEM_BONDANNOTATIONS>
10  17  8
13  15  8
13  19  8
16  17  8
18  20  8
19  20  8
3  5  8
3  7  8
4  11  8
4  7  8
5  6  8
5  9  8
6  10  8
6  11  8
8  15  8
8  18  8
9  16  8

$$$$
