53570925
  -OEChem-11301218062D

 39 42  0     0  0  0  0  0  0999 V2000
    5.5981    0.7360    0.0000 O   0  0  0  0  0  0  0  0  0  0  0  0
    4.7320   -0.7640    0.0000 N   0  0  0  0  0  0  0  0  0  0  0  0
    6.4641   -0.7640    0.0000 N   0  0  0  0  0  0  0  0  0  0  0  0
   10.0084    1.0407    0.0000 N   0  0  0  0  0  0  0  0  0  0  0  0
    3.0000   -0.7640    0.0000 C   0  0  0  0  0  0  0  0  0  0  0  0
    3.8660    0.7360    0.0000 C   0  0  0  0  0  0  0  0  0  0  0  0
    3.8660   -0.2640    0.0000 C   0  0  0  0  0  0  0  0  0  0  0  0
    2.0000   -0.7640    0.0000 C   0  0  0  0  0  0  0  0  0  0  0  0
    2.5000   -1.6300    0.0000 C   0  0  0  0  0  0  0  0  0  0  0  0
    4.3660    1.6020    0.0000 C   0  0  0  0  0  0  0  0  0  0  0  0
    3.3660    1.6020    0.0000 C   0  0  0  0  0  0  0  0  0  0  0  0
    5.5981   -0.2640    0.0000 C   0  0  0  0  0  0  0  0  0  0  0  0
    7.3301   -0.2640    0.0000 C   0  0  0  0  0  0  0  0  0  0  0  0
    8.1962   -0.7640    0.0000 C   0  0  0  0  0  0  0  0  0  0  0  0
    7.3301    0.7360    0.0000 C   0  0  0  0  0  0  0  0  0  0  0  0
    9.0622   -0.2640    0.0000 C   0  0  0  0  0  0  0  0  0  0  0  0
    9.0622    0.7360    0.0000 C   0  0  0  0  0  0  0  0  0  0  0  0
    8.1962    1.2360    0.0000 C   0  0  0  0  0  0  0  0  0  0  0  0
   10.0084   -0.5687    0.0000 C   0  0  0  0  0  0  0  0  0  0  0  0
   10.5920    0.2360    0.0000 C   0  0  0  0  0  0  0  0  0  0  0  0
    4.4649    0.5755    0.0000 H   0  0  0  0  0  0  0  0  0  0  0  0
    2.8395   -0.1651    0.0000 H   0  0  0  0  0  0  0  0  0  0  0  0
    3.8660   -0.8840    0.0000 H   0  0  0  0  0  0  0  0  0  0  0  0
    3.2584    2.2126    0.0000 H   0  0  0  0  0  0  0  0  0  0  0  0
    2.7834    1.3900    0.0000 H   0  0  0  0  0  0  0  0  0  0  0  0
    4.9486    1.3900    0.0000 H   0  0  0  0  0  0  0  0  0  0  0  0
    4.4737    2.2126    0.0000 H   0  0  0  0  0  0  0  0  0  0  0  0
    2.0250   -2.0286    0.0000 H   0  0  0  0  0  0  0  0  0  0  0  0
    2.9750   -2.0286    0.0000 H   0  0  0  0  0  0  0  0  0  0  0  0
    1.8923   -0.1534    0.0000 H   0  0  0  0  0  0  0  0  0  0  0  0
    1.4174   -0.9761    0.0000 H   0  0  0  0  0  0  0  0  0  0  0  0
    4.7320   -1.3840    0.0000 H   0  0  0  0  0  0  0  0  0  0  0  0
    6.4641   -1.3840    0.0000 H   0  0  0  0  0  0  0  0  0  0  0  0
    8.1962   -1.3840    0.0000 H   0  0  0  0  0  0  0  0  0  0  0  0
    6.7932    1.0460    0.0000 H   0  0  0  0  0  0  0  0  0  0  0  0
    8.1962    1.8560    0.0000 H   0  0  0  0  0  0  0  0  0  0  0  0
   10.2010   -1.1581    0.0000 H   0  0  0  0  0  0  0  0  0  0  0  0
   10.2010    1.6300    0.0000 H   0  0  0  0  0  0  0  0  0  0  0  0
   11.2120    0.2360    0.0000 H   0  0  0  0  0  0  0  0  0  0  0  0
  1 12  2  0  0  0  0
  2  7  1  0  0  0  0
  2 12  1  0  0  0  0
  2 32  1  0  0  0  0
  3 12  1  0  0  0  0
  3 13  1  0  0  0  0
  3 33  1  0  0  0  0
  4 17  1  0  0  0  0
  4 20  1  0  0  0  0
  4 38  1  0  0  0  0
  5  7  1  0  0  0  0
  5  8  1  0  0  0  0
  5  9  1  0  0  0  0
  5 22  1  0  0  0  0
  6  7  1  0  0  0  0
  6 10  1  0  0  0  0
  6 11  1  0  0  0  0
  6 21  1  0  0  0  0
  7 23  1  0  0  0  0
  8  9  1  0  0  0  0
  8 30  1  0  0  0  0
  8 31  1  0  0  0  0
  9 28  1  0  0  0  0
  9 29  1  0  0  0  0
 10 11  1  0  0  0  0
 10 26  1  0  0  0  0
 10 27  1  0  0  0  0
 11 24  1  0  0  0  0
 11 25  1  0  0  0  0
 13 14  2  0  0  0  0
 13 15  1  0  0  0  0
 14 16  1  0  0  0  0
 14 34  1  0  0  0  0
 15 18  2  0  0  0  0
 15 35  1  0  0  0  0
 16 17  2  0  0  0  0
 16 19  1  0  0  0  0
 17 18  1  0  0  0  0
 18 36  1  0  0  0  0
 19 20  2  0  0  0  0
 19 37  1  0  0  0  0
 20 39  1  0  0  0  0
M  END
> <PUBCHEM_COMPOUND_CID>
53570925

> <PUBCHEM_COMPOUND_CANONICALIZED>
1

> <PUBCHEM_CACTVS_COMPLEXITY>
366

> <PUBCHEM_CACTVS_HBOND_ACCEPTOR>
1

> <PUBCHEM_CACTVS_HBOND_DONOR>
3

> <PUBCHEM_CACTVS_ROTATABLE_BOND>
4

> <PUBCHEM_CACTVS_SUBSKEYS>
AAADceB7IAAAAAAAAAAAAAAAGDAAAWAAAAAwAAAAAAAAAFgB8AAAHgAQAAAADSjBHgQ9wPLJkACoAzRnVACCgCAxAiAI2aA4ZJiIIOLAkZGEIAholgLIyCcQgIAOAACAQAACAAAAAQCAAAQAAAAAAAAAAA==

> <PUBCHEM_IUPAC_OPENEYE_NAME>
1-(dicyclopropylmethyl)-3-(1H-indol-5-yl)urea

> <PUBCHEM_IUPAC_CAS_NAME>
1-(dicyclopropylmethyl)-3-(1H-indol-5-yl)urea

> <PUBCHEM_IUPAC_NAME>
1-(dicyclopropylmethyl)-3-(1H-indol-5-yl)urea

> <PUBCHEM_IUPAC_SYSTEMATIC_NAME>
1-(dicyclopropylmethyl)-3-(1H-indol-5-yl)urea

> <PUBCHEM_IUPAC_TRADITIONAL_NAME>
1-(dicyclopropylmethyl)-3-(1H-indol-5-yl)urea

> <PUBCHEM_IUPAC_INCHI>
InChI=1S/C16H19N3O/c20-16(19-15(10-1-2-10)11-3-4-11)18-13-5-6-14-12(9-13)7-8-17-14/h5-11,15,17H,1-4H2,(H2,18,19,20)

> <PUBCHEM_IUPAC_INCHIKEY>
WKYDSCVKBGVWNZ-UHFFFAOYSA-N

> <PUBCHEM_XLOGP3>
2.4

> <PUBCHEM_EXACT_MASS>
269.152812

> <PUBCHEM_MOLECULAR_FORMULA>
C16H19N3O

> <PUBCHEM_MOLECULAR_WEIGHT>
269.34156

> <PUBCHEM_OPENEYE_CAN_SMILES>
C1CC1C(C2CC2)NC(=O)NC3=CC4=C(C=C3)NC=C4

> <PUBCHEM_OPENEYE_ISO_SMILES>
C1CC1C(C2CC2)NC(=O)NC3=CC4=C(C=C3)NC=C4

> <PUBCHEM_CACTVS_TPSA>
56.9

> <PUBCHEM_MONOISOTOPIC_WEIGHT>
269.152812

> <PUBCHEM_TOTAL_CHARGE>
0

> <PUBCHEM_HEAVY_ATOM_COUNT>
20

> <PUBCHEM_ATOM_DEF_STEREO_COUNT>
0

> <PUBCHEM_ATOM_UDEF_STEREO_COUNT>
0

> <PUBCHEM_BOND_DEF_STEREO_COUNT>
0

> <PUBCHEM_BOND_UDEF_STEREO_COUNT>
0

> <PUBCHEM_ISOTOPIC_ATOM_COUNT>
0

> <PUBCHEM_COMPONENT_COUNT>
1

> <PUBCHEM_CACTVS_TAUTO_COUNT>
3

> <PUBCHEM_COORDINATE_TYPE>
1
5
255

> <PUBCHEM_BONDANNOTATIONS>
13  14  8
13  15  8
14  16  8
15  18  8
16  17  8
16  19  8
17  18  8
19  20  8
4  17  8
4  20  8

$$$$
53574294
  -OEChem-11301218062D

 28 28  0     0  0  0  0  0  0999 V2000
    2.0000   -3.0000    0.0000 Br  0  0  0  0  0  0  0  0  0  0  0  0
    5.4641    0.0000    0.0000 O   0  0  0  0  0  0  0  0  0  0  0  0
    4.5981    1.5000    0.0000 N   0  0  0  0  0  0  0  0  0  0  0  0
    3.7320    0.0000    0.0000 C   0  0  0  0  0  0  0  0  0  0  0  0
    5.4641    2.0000    0.0000 C   0  0  0  0  0  0  0  0  0  0  0  0
    4.5981    0.5000    0.0000 C   0  0  0  0  0  0  0  0  0  0  0  0
    3.7320   -1.0000    0.0000 C   0  0  0  0  0  0  0  0  0  0  0  0
    3.7320    2.0000    0.0000 C   0  0  0  0  0  0  0  0  0  0  0  0
    5.4641    3.0000    0.0000 C   0  0  0  0  0  0  0  0  0  0  0  0
    2.8660   -1.5000    0.0000 C   0  0  0  0  0  0  0  0  0  0  0  0
    4.5981   -1.5000    0.0000 C   0  0  0  0  0  0  0  0  0  0  0  0
    2.8660   -2.5000    0.0000 C   0  0  0  0  0  0  0  0  0  0  0  0
    4.5981   -2.5000    0.0000 C   0  0  0  0  0  0  0  0  0  0  0  0
    3.7320   -3.0000    0.0000 C   0  0  0  0  0  0  0  0  0  0  0  0
    3.5200    0.5826    0.0000 H   0  0  0  0  0  0  0  0  0  0  0  0
    3.1215   -0.1077    0.0000 H   0  0  0  0  0  0  0  0  0  0  0  0
    5.6762    1.4174    0.0000 H   0  0  0  0  0  0  0  0  0  0  0  0
    6.0747    2.1077    0.0000 H   0  0  0  0  0  0  0  0  0  0  0  0
    4.0420    2.5369    0.0000 H   0  0  0  0  0  0  0  0  0  0  0  0
    3.1951    2.3100    0.0000 H   0  0  0  0  0  0  0  0  0  0  0  0
    3.4220    1.4631    0.0000 H   0  0  0  0  0  0  0  0  0  0  0  0
    6.0841    3.0000    0.0000 H   0  0  0  0  0  0  0  0  0  0  0  0
    5.4641    3.6200    0.0000 H   0  0  0  0  0  0  0  0  0  0  0  0
    4.8441    3.0000    0.0000 H   0  0  0  0  0  0  0  0  0  0  0  0
    2.3291   -1.1900    0.0000 H   0  0  0  0  0  0  0  0  0  0  0  0
    5.1350   -1.1900    0.0000 H   0  0  0  0  0  0  0  0  0  0  0  0
    5.1350   -2.8100    0.0000 H   0  0  0  0  0  0  0  0  0  0  0  0
    3.7320   -3.6200    0.0000 H   0  0  0  0  0  0  0  0  0  0  0  0
  1 12  1  0  0  0  0
  2  6  2  0  0  0  0
  3  5  1  0  0  0  0
  3  6  1  0  0  0  0
  3  8  1  0  0  0  0
  4  6  1  0  0  0  0
  4  7  1  0  0  0  0
  4 15  1  0  0  0  0
  4 16  1  0  0  0  0
  5  9  1  0  0  0  0
  5 17  1  0  0  0  0
  5 18  1  0  0  0  0
  7 10  2  0  0  0  0
  7 11  1  0  0  0  0
  8 19  1  0  0  0  0
  8 20  1  0  0  0  0
  8 21  1  0  0  0  0
  9 22  1  0  0  0  0
  9 23  1  0  0  0  0
  9 24  1  0  0  0  0
 10 12  1  0  0  0  0
 10 25  1  0  0  0  0
 11 13  2  0  0  0  0
 11 26  1  0  0  0  0
 12 14  2  0  0  0  0
 13 14  1  0  0  0  0
 13 27  1  0  0  0  0
 14 28  1  0  0  0  0
M  END
> <PUBCHEM_COMPOUND_CID>
53574294

> <PUBCHEM_COMPOUND_CANONICALIZED>
1

> <PUBCHEM_CACTVS_COMPLEXITY>
196

> <PUBCHEM_CACTVS_HBOND_ACCEPTOR>
1

> <PUBCHEM_CACTVS_HBOND_DONOR>
0

> <PUBCHEM_CACTVS_ROTATABLE_BOND>
3

> <PUBCHEM_CACTVS_SUBSKEYS>
AAADccByIAAAEAAAAAAAAAAAAAAAAAAAAAAwAAAAAAAAAAABAAAAHgBAAAABrADBmAQyAIMAAACIAiFSEAACAAAgAAQIiAEIAKgIIDKAlRGEIAAghgCIihcYiICOAAAAEAAAAAAAAAAgAAAAAAAAAAAAAA==

> <PUBCHEM_IUPAC_OPENEYE_NAME>
2-(3-bromophenyl)-N-ethyl-N-methyl-acetamide

> <PUBCHEM_IUPAC_CAS_NAME>
2-(3-bromophenyl)-N-ethyl-N-methylacetamide

> <PUBCHEM_IUPAC_NAME>
2-(3-bromophenyl)-N-ethyl-N-methylacetamide

> <PUBCHEM_IUPAC_SYSTEMATIC_NAME>
2-(3-bromophenyl)-N-ethyl-N-methyl-ethanamide

> <PUBCHEM_IUPAC_TRADITIONAL_NAME>
2-(3-bromophenyl)-N-ethyl-N-methyl-acetamide

> <PUBCHEM_IUPAC_INCHI>
InChI=1S/C11H14BrNO/c1-3-13(2)11(14)8-9-5-4-6-10(12)7-9/h4-7H,3,8H2,1-2H3

> <PUBCHEM_IUPAC_INCHIKEY>
XUOGJCHUDLLLIU-UHFFFAOYSA-N

> <PUBCHEM_XLOGP3>
2.7

> <PUBCHEM_EXACT_MASS>
255.025876

> <PUBCHEM_MOLECULAR_FORMULA>
C11H14BrNO

> <PUBCHEM_MOLECULAR_WEIGHT>
256.13896

> <PUBCHEM_OPENEYE_CAN_SMILES>
CCN(C)C(=O)CC1=CC(=CC=C1)Br

> <PUBCHEM_OPENEYE_ISO_SMILES>
CCN(C)C(=O)CC1=CC(=CC=C1)Br

> <PUBCHEM_CACTVS_TPSA>
20.3

> <PUBCHEM_MONOISOTOPIC_WEIGHT>
255.025876

> <PUBCHEM_TOTAL_CHARGE>
0

> <PUBCHEM_HEAVY_ATOM_COUNT>
14

> <PUBCHEM_ATOM_DEF_STEREO_COUNT>
0

> <PUBCHEM_ATOM_UDEF_STEREO_COUNT>
0

> <PUBCHEM_BOND_DEF_STEREO_COUNT>
0

> <PUBCHEM_BOND_UDEF_STEREO_COUNT>
0

> <PUBCHEM_ISOTOPIC_ATOM_COUNT>
0

> <PUBCHEM_COMPONENT_COUNT>
1

> <PUBCHEM_CACTVS_TAUTO_COUNT>
1

> <PUBCHEM_COORDINATE_TYPE>
1
5
255

> <PUBCHEM_BONDANNOTATIONS>
10  12  8
11  13  8
12  14  8
13  14  8
7  10  8
7  11  8

$$$$
