53514110
  -OEChem-11301218052D

 43 45  0     0  0  0  0  0  0999 V2000
    6.2781    0.3551    0.0000 N   0  0  0  0  0  0  0  0  0  0  0  0
    4.6783   -3.3616    0.0000 N   0  0  0  0  0  0  0  0  0  0  0  0
    4.9889   -0.8016    0.0000 C   0  0  0  0  0  0  0  0  0  0  0  0
    4.6783   -1.7522    0.0000 C   0  0  0  0  0  0  0  0  0  0  0  0
    5.9674   -0.5954    0.0000 C   0  0  0  0  0  0  0  0  0  0  0  0
    3.7320   -2.0569    0.0000 C   0  0  0  0  0  0  0  0  0  0  0  0
    3.7320   -3.0569    0.0000 C   0  0  0  0  0  0  0  0  0  0  0  0
    7.2566    0.5613    0.0000 C   0  0  0  0  0  0  0  0  0  0  0  0
    5.2619   -2.5569    0.0000 C   0  0  0  0  0  0  0  0  0  0  0  0
    7.5673    1.5118    0.0000 C   0  0  0  0  0  0  0  0  0  0  0  0
    2.8660   -1.5569    0.0000 C   0  0  0  0  0  0  0  0  0  0  0  0
    2.8660   -3.5569    0.0000 C   0  0  0  0  0  0  0  0  0  0  0  0
    8.5458    1.7180    0.0000 C   0  0  0  0  0  0  0  0  0  0  0  0
    6.8994    2.2561    0.0000 C   0  0  0  0  0  0  0  0  0  0  0  0
    8.8564    2.6686    0.0000 C   0  0  0  0  0  0  0  0  0  0  0  0
    7.2101    3.2066    0.0000 C   0  0  0  0  0  0  0  0  0  0  0  0
    2.0000   -2.0569    0.0000 C   0  0  0  0  0  0  0  0  0  0  0  0
    8.1886    3.4129    0.0000 C   0  0  0  0  0  0  0  0  0  0  0  0
    2.0000   -3.0569    0.0000 C   0  0  0  0  0  0  0  0  0  0  0  0
    9.8349    2.8748    0.0000 C   0  0  0  0  0  0  0  0  0  0  0  0
    6.5422    3.9510    0.0000 C   0  0  0  0  0  0  0  0  0  0  0  0
    4.9684   -0.1820    0.0000 H   0  0  0  0  0  0  0  0  0  0  0  0
    4.3751   -0.7143    0.0000 H   0  0  0  0  0  0  0  0  0  0  0  0
    5.9880   -1.2151    0.0000 H   0  0  0  0  0  0  0  0  0  0  0  0
    6.5812   -0.6828    0.0000 H   0  0  0  0  0  0  0  0  0  0  0  0
    7.2772   -0.0583    0.0000 H   0  0  0  0  0  0  0  0  0  0  0  0
    7.8704    0.4740    0.0000 H   0  0  0  0  0  0  0  0  0  0  0  0
    5.8640    0.8166    0.0000 H   0  0  0  0  0  0  0  0  0  0  0  0
    5.8819   -2.5569    0.0000 H   0  0  0  0  0  0  0  0  0  0  0  0
    4.8709   -3.9510    0.0000 H   0  0  0  0  0  0  0  0  0  0  0  0
    2.8660   -0.9369    0.0000 H   0  0  0  0  0  0  0  0  0  0  0  0
    2.8660   -4.1769    0.0000 H   0  0  0  0  0  0  0  0  0  0  0  0
    8.9598    1.2566    0.0000 H   0  0  0  0  0  0  0  0  0  0  0  0
    6.2928    2.1283    0.0000 H   0  0  0  0  0  0  0  0  0  0  0  0
    1.4631   -1.7469    0.0000 H   0  0  0  0  0  0  0  0  0  0  0  0
    8.3812    4.0022    0.0000 H   0  0  0  0  0  0  0  0  0  0  0  0
    1.4631   -3.3669    0.0000 H   0  0  0  0  0  0  0  0  0  0  0  0
    9.9628    2.2681    0.0000 H   0  0  0  0  0  0  0  0  0  0  0  0
   10.4416    3.0026    0.0000 H   0  0  0  0  0  0  0  0  0  0  0  0
    9.7071    3.4815    0.0000 H   0  0  0  0  0  0  0  0  0  0  0  0
    7.0037    4.3650    0.0000 H   0  0  0  0  0  0  0  0  0  0  0  0
    6.1282    4.4124    0.0000 H   0  0  0  0  0  0  0  0  0  0  0  0
    6.0808    3.5369    0.0000 H   0  0  0  0  0  0  0  0  0  0  0  0
  1  5  1  0  0  0  0
  1  8  1  0  0  0  0
  1 28  1  0  0  0  0
  2  7  1  0  0  0  0
  2  9  1  0  0  0  0
  2 30  1  0  0  0  0
  3  4  1  0  0  0  0
  3  5  1  0  0  0  0
  3 22  1  0  0  0  0
  3 23  1  0  0  0  0
  4  6  1  0  0  0  0
  4  9  2  0  0  0  0
  5 24  1  0  0  0  0
  5 25  1  0  0  0  0
  6  7  1  0  0  0  0
  6 11  2  0  0  0  0
  7 12  2  0  0  0  0
  8 10  1  0  0  0  0
  8 26  1  0  0  0  0
  8 27  1  0  0  0  0
  9 29  1  0  0  0  0
 10 13  2  0  0  0  0
 10 14  1  0  0  0  0
 11 17  1  0  0  0  0
 11 31  1  0  0  0  0
 12 19  1  0  0  0  0
 12 32  1  0  0  0  0
 13 15  1  0  0  0  0
 13 33  1  0  0  0  0
 14 16  2  0  0  0  0
 14 34  1  0  0  0  0
 15 18  2  0  0  0  0
 15 20  1  0  0  0  0
 16 18  1  0  0  0  0
 16 21  1  0  0  0  0
 17 19  2  0  0  0  0
 17 35  1  0  0  0  0
 18 36  1  0  0  0  0
 19 37  1  0  0  0  0
 20 38  1  0  0  0  0
 20 39  1  0  0  0  0
 20 40  1  0  0  0  0
 21 41  1  0  0  0  0
 21 42  1  0  0  0  0
 21 43  1  0  0  0  0
M  END
> <PUBCHEM_COMPOUND_CID>
53514110

> <PUBCHEM_COMPOUND_CANONICALIZED>
1

> <PUBCHEM_CACTVS_COMPLEXITY>
307

> <PUBCHEM_CACTVS_HBOND_ACCEPTOR>
1

> <PUBCHEM_CACTVS_HBOND_DONOR>
2

> <PUBCHEM_CACTVS_ROTATABLE_BOND>
5

> <PUBCHEM_CACTVS_SUBSKEYS>
AAADceB7AAAAAAAAAAAAAAAAAAAAAWAAAAAwYAAAAAAAAFgB9AAAHAAQAAAADAjBHgQ+wPLJkACgAzRnRACCgCAxAiAI2aA4ZJgIIOLAkZGEIAhgkADIyAcQgMAOgAACAAACAAAAAAQAAAQAAAAAAAAAAA==

> <PUBCHEM_IUPAC_OPENEYE_NAME>
N-[(3,5-dimethylphenyl)methyl]-2-(1H-indol-3-yl)ethanamine

> <PUBCHEM_IUPAC_CAS_NAME>
N-[(3,5-dimethylphenyl)methyl]-2-(1H-indol-3-yl)ethanamine

> <PUBCHEM_IUPAC_NAME>
N-[(3,5-dimethylphenyl)methyl]-2-(1H-indol-3-yl)ethanamine

> <PUBCHEM_IUPAC_SYSTEMATIC_NAME>
N-[(3,5-dimethylphenyl)methyl]-2-(1H-indol-3-yl)ethanamine

> <PUBCHEM_IUPAC_TRADITIONAL_NAME>
(3,5-dimethylbenzyl)-[2-(1H-indol-3-yl)ethyl]amine

> <PUBCHEM_IUPAC_INCHI>
InChI=1S/C19H22N2/c1-14-9-15(2)11-16(10-14)12-20-8-7-17-13-21-19-6-4-3-5-18(17)19/h3-6,9-11,13,20-21H,7-8,12H2,1-2H3

> <PUBCHEM_IUPAC_INCHIKEY>
PMXUAJPJGGCCQY-UHFFFAOYSA-N

> <PUBCHEM_XLOGP3>
4.3

> <PUBCHEM_EXACT_MASS>
278.178299

> <PUBCHEM_MOLECULAR_FORMULA>
C19H22N2

> <PUBCHEM_MOLECULAR_WEIGHT>
278.39138

> <PUBCHEM_OPENEYE_CAN_SMILES>
CC1=CC(=CC(=C1)CNCCC2=CNC3=CC=CC=C32)C

> <PUBCHEM_OPENEYE_ISO_SMILES>
CC1=CC(=CC(=C1)CNCCC2=CNC3=CC=CC=C32)C

> <PUBCHEM_CACTVS_TPSA>
27.8

> <PUBCHEM_MONOISOTOPIC_WEIGHT>
278.178299

> <PUBCHEM_TOTAL_CHARGE>
0

> <PUBCHEM_HEAVY_ATOM_COUNT>
21

> <PUBCHEM_ATOM_DEF_STEREO_COUNT>
0

> <PUBCHEM_ATOM_UDEF_STEREO_COUNT>
0

> <PUBCHEM_BOND_DEF_STEREO_COUNT>
0

> <PUBCHEM_BOND_UDEF_STEREO_COUNT>
0

> <PUBCHEM_ISOTOPIC_ATOM_COUNT>
0

> <PUBCHEM_COMPONENT_COUNT>
1

> <PUBCHEM_CACTVS_TAUTO_COUNT>
1

> <PUBCHEM_COORDINATE_TYPE>
1
5
255

> <PUBCHEM_BONDANNOTATIONS>
10  13  8
10  14  8
11  17  8
12  19  8
13  15  8
14  16  8
15  18  8
16  18  8
17  19  8
2  7  8
2  9  8
4  6  8
4  9  8
6  11  8
6  7  8
7  12  8

$$$$
53515503
  -OEChem-11301218052D

 43 44  0     1  0  0  0  0  0999 V2000
    4.1808   -0.1691    0.0000 O   0  0  0  0  0  0  0  0  0  0  0  0
    5.8538   -0.6174    0.0000 N   0  0  0  0  0  0  0  0  0  0  0  0
    7.8447    1.3486    0.0000 C   0  0  3  0  0  0  0  0  0  0  0  0
    7.3669    3.2971    0.0000 C   0  0  0  0  0  0  0  0  0  0  0  0
    8.1035    2.3145    0.0000 C   0  0  3  0  0  0  0  0  0  0  0  0
    6.1126    0.3485    0.0000 C   0  0  3  0  0  0  0  0  0  0  0  0
    9.6766    0.5897    0.0000 C   0  0  0  0  0  0  0  0  0  0  0  0
    5.6126    1.2146    0.0000 C   0  0  0  0  0  0  0  0  0  0  0  0
    9.9355    1.5557    0.0000 C   0  0  0  0  0  0  0  0  0  0  0  0
    7.5859    0.3826    0.0000 C   0  0  0  0  0  0  0  0  0  0  0  0
    7.4714    4.2916    0.0000 C   0  0  0  0  0  0  0  0  0  0  0  0
    6.4534    3.7038    0.0000 C   0  0  0  0  0  0  0  0  0  0  0  0
    4.8879   -0.8762    0.0000 C   0  0  0  0  0  0  0  0  0  0  0  0
    4.6291   -1.8421    0.0000 C   0  0  0  0  0  0  0  0  0  0  0  0
    3.6632   -2.1009    0.0000 C   0  0  0  0  0  0  0  0  0  0  0  0
    3.4043   -3.0669    0.0000 C   0  0  0  0  0  0  0  0  0  0  0  0
    2.4384   -3.3257    0.0000 C   0  0  0  0  0  0  0  0  0  0  0  0
    2.1796   -4.2916    0.0000 C   0  0  0  0  0  0  0  0  0  0  0  0
    8.1107    1.6945    0.0000 H   0  0  0  0  0  0  0  0  0  0  0  0
    6.6045   -0.0289    0.0000 H   0  0  0  0  0  0  0  0  0  0  0  0
    9.4646    0.0071    0.0000 H   0  0  0  0  0  0  0  0  0  0  0  0
   10.2679    0.4033    0.0000 H   0  0  0  0  0  0  0  0  0  0  0  0
    5.3420    1.7724    0.0000 H   0  0  0  0  0  0  0  0  0  0  0  0
    5.0649    0.9241    0.0000 H   0  0  0  0  0  0  0  0  0  0  0  0
   10.5268    1.3692    0.0000 H   0  0  0  0  0  0  0  0  0  0  0  0
   10.1475    2.1383    0.0000 H   0  0  0  0  0  0  0  0  0  0  0  0
    6.9870    0.5431    0.0000 H   0  0  0  0  0  0  0  0  0  0  0  0
    7.4254   -0.2163    0.0000 H   0  0  0  0  0  0  0  0  0  0  0  0
    8.1848    0.2222    0.0000 H   0  0  0  0  0  0  0  0  0  0  0  0
    8.0880    4.2268    0.0000 H   0  0  0  0  0  0  0  0  0  0  0  0
    7.5362    4.9082    0.0000 H   0  0  0  0  0  0  0  0  0  0  0  0
    6.8548    4.3564    0.0000 H   0  0  0  0  0  0  0  0  0  0  0  0
    6.7055    4.2702    0.0000 H   0  0  0  0  0  0  0  0  0  0  0  0
    5.8870    3.9560    0.0000 H   0  0  0  0  0  0  0  0  0  0  0  0
    6.2012    3.1374    0.0000 H   0  0  0  0  0  0  0  0  0  0  0  0
    6.2922   -1.0558    0.0000 H   0  0  0  0  0  0  0  0  0  0  0  0
    5.0675   -2.2805    0.0000 H   0  0  0  0  0  0  0  0  0  0  0  0
    3.2247   -1.6625    0.0000 H   0  0  0  0  0  0  0  0  0  0  0  0
    3.8427   -3.5053    0.0000 H   0  0  0  0  0  0  0  0  0  0  0  0
    2.0000   -2.8873    0.0000 H   0  0  0  0  0  0  0  0  0  0  0  0
    1.5807   -4.1311    0.0000 H   0  0  0  0  0  0  0  0  0  0  0  0
    2.0191   -4.8905    0.0000 H   0  0  0  0  0  0  0  0  0  0  0  0
    2.7785   -4.4521    0.0000 H   0  0  0  0  0  0  0  0  0  0  0  0
  1 13  2  0  0  0  0
  2  6  1  0  0  0  0
  2 13  1  0  0  0  0
  2 36  1  0  0  0  0
  3  4  1  0  0  0  0
  3  6  1  0  0  0  0
  3  7  1  0  0  0  0
  3 10  1  0  0  0  0
  4  5  1  0  0  0  0
  4 11  1  0  0  0  0
  4 12  1  0  0  0  0
  5  8  1  0  0  0  0
  5  9  1  0  0  0  0
  5 19  1  0  0  0  0
  6  8  1  0  0  0  0
  6 20  1  0  0  0  0
  7  9  1  0  0  0  0
  7 21  1  0  0  0  0
  7 22  1  0  0  0  0
  8 23  1  0  0  0  0
  8 24  1  0  0  0  0
  9 25  1  0  0  0  0
  9 26  1  0  0  0  0
 10 27  1  0  0  0  0
 10 28  1  0  0  0  0
 10 29  1  0  0  0  0
 11 30  1  0  0  0  0
 11 31  1  0  0  0  0
 11 32  1  0  0  0  0
 12 33  1  0  0  0  0
 12 34  1  0  0  0  0
 12 35  1  0  0  0  0
 13 14  1  0  0  0  0
 14 15  2  0  0  0  0
 14 37  1  0  0  0  0
 15 16  1  0  0  0  0
 15 38  1  0  0  0  0
 16 17  2  0  0  0  0
 16 39  1  0  0  0  0
 17 18  1  0  0  0  0
 17 40  1  0  0  0  0
 18 41  1  0  0  0  0
 18 42  1  0  0  0  0
 18 43  1  0  0  0  0
M  END
> <PUBCHEM_COMPOUND_CID>
53515503

> <PUBCHEM_COMPOUND_CANONICALIZED>
1

> <PUBCHEM_CACTVS_COMPLEXITY>
394

> <PUBCHEM_CACTVS_HBOND_ACCEPTOR>
1

> <PUBCHEM_CACTVS_HBOND_DONOR>
1

> <PUBCHEM_CACTVS_ROTATABLE_BOND>
3

> <PUBCHEM_CACTVS_SUBSKEYS>
AAADceB6IAAAAAAAAAAAAAAAAAAAAYMAAAAwAAAAAAAAAAAAAAAAHgAQAAAADyjBgAQCAALAAACIACFSEACAAAAAAAAICIAIAEAIAAIAgQAEAAAAFgCAgYEQgMAPgAAAAAAAAACAAACAAAQAASAACQAAAA==

> <PUBCHEM_IUPAC_OPENEYE_NAME>
(2E,4E)-N-(1,7,7-trimethylnorbornan-2-yl)hexa-2,4-dienamide

> <PUBCHEM_IUPAC_CAS_NAME>
(2E,4E)-N-(4,7,7-trimethyl-3-bicyclo[2.2.1]heptanyl)hexa-2,4-dienamide

> <PUBCHEM_IUPAC_NAME>
(2E,4E)-N-(4,7,7-trimethyl-3-bicyclo[2.2.1]heptanyl)hexa-2,4-dienamide

> <PUBCHEM_IUPAC_SYSTEMATIC_NAME>
(2E,4E)-N-(4,7,7-trimethyl-3-bicyclo[2.2.1]heptanyl)hexa-2,4-dienamide

> <PUBCHEM_IUPAC_TRADITIONAL_NAME>
(2E,4E)-N-(2-bornyl)hexa-2,4-dienamide

> <PUBCHEM_IUPAC_INCHI>
InChI=1S/C16H25NO/c1-5-6-7-8-14(18)17-13-11-12-9-10-16(13,4)15(12,2)3/h5-8,12-13H,9-11H2,1-4H3,(H,17,18)/b6-5+,8-7+

> <PUBCHEM_IUPAC_INCHIKEY>
LZTOFYAWHJFUNN-BSWSSELBSA-N

> <PUBCHEM_XLOGP3>
4.2

> <PUBCHEM_EXACT_MASS>
247.193614

> <PUBCHEM_MOLECULAR_FORMULA>
C16H25NO

> <PUBCHEM_MOLECULAR_WEIGHT>
247.3758

> <PUBCHEM_OPENEYE_CAN_SMILES>
CC=CC=CC(=O)NC1CC2CCC1(C2(C)C)C

> <PUBCHEM_OPENEYE_ISO_SMILES>
C/C=C/C=C/C(=O)NC1CC2CCC1(C2(C)C)C

> <PUBCHEM_CACTVS_TPSA>
29.1

> <PUBCHEM_MONOISOTOPIC_WEIGHT>
247.193614

> <PUBCHEM_TOTAL_CHARGE>
0

> <PUBCHEM_HEAVY_ATOM_COUNT>
18

> <PUBCHEM_ATOM_DEF_STEREO_COUNT>
0

> <PUBCHEM_ATOM_UDEF_STEREO_COUNT>
3

> <PUBCHEM_BOND_DEF_STEREO_COUNT>
2

> <PUBCHEM_BOND_UDEF_STEREO_COUNT>
0

> <PUBCHEM_ISOTOPIC_ATOM_COUNT>
0

> <PUBCHEM_COMPONENT_COUNT>
1

> <PUBCHEM_CACTVS_TAUTO_COUNT>
5

> <PUBCHEM_COORDINATE_TYPE>
1
5
255

> <PUBCHEM_BONDANNOTATIONS>
6  2  3
3  10  3
5  4  3

$$$$
