35155687
  -OEChem-10191221442D

 39 41  0     0  0  0  0  0  0999 V2000
    8.6907    0.2653    0.0000 O   0  0  0  0  0  0  0  0  0  0  0  0
    7.3991   -0.8887    0.0000 N   0  0  0  0  0  0  0  0  0  0  0  0
    4.5274    1.9719    0.0000 C   0  0  0  0  0  0  0  0  0  0  0  0
    5.3364    1.3841    0.0000 C   0  0  0  0  0  0  0  0  0  0  0  0
    5.0274    0.4330    0.0000 C   0  0  0  0  0  0  0  0  0  0  0  0
    3.7183    1.3841    0.0000 C   0  0  0  0  0  0  0  0  0  0  0  0
    4.0274    0.4330    0.0000 C   0  0  0  0  0  0  0  0  0  0  0  0
    5.7123   -0.3517    0.0000 C   0  0  0  0  0  0  0  0  0  0  0  0
    6.3518    1.6163    0.0000 C   0  0  0  0  0  0  0  0  0  0  0  0
    6.7328   -0.1430    0.0000 C   0  0  0  0  0  0  0  0  0  0  0  0
    2.7029    1.6163    0.0000 C   0  0  0  0  0  0  0  0  0  0  0  0
    3.3424   -0.3517    0.0000 C   0  0  0  0  0  0  0  0  0  0  0  0
    7.0547    0.8477    0.0000 C   0  0  0  0  0  0  0  0  0  0  0  0
   10.0232   -1.2262    0.0000 C   0  0  0  0  0  0  0  0  0  0  0  0
    9.0443   -1.4303    0.0000 C   0  0  0  0  0  0  0  0  0  0  0  0
    2.0000    0.8477    0.0000 C   0  0  0  0  0  0  0  0  0  0  0  0
    2.3219   -0.1430    0.0000 C   0  0  0  0  0  0  0  0  0  0  0  0
    8.3780   -0.6846    0.0000 C   0  0  0  0  0  0  0  0  0  0  0  0
   10.6895   -1.9719    0.0000 C   0  0  0  0  0  0  0  0  0  0  0  0
   11.6684   -1.7677    0.0000 C   0  0  0  0  0  0  0  0  0  0  0  0
    4.9422    2.4326    0.0000 H   0  0  0  0  0  0  0  0  0  0  0  0
    4.1125    2.4326    0.0000 H   0  0  0  0  0  0  0  0  0  0  0  0
    5.5139   -0.9391    0.0000 H   0  0  0  0  0  0  0  0  0  0  0  0
    6.5365    2.2082    0.0000 H   0  0  0  0  0  0  0  0  0  0  0  0
    2.5182    2.2082    0.0000 H   0  0  0  0  0  0  0  0  0  0  0  0
    3.5408   -0.9391    0.0000 H   0  0  0  0  0  0  0  0  0  0  0  0
    7.6607    0.9789    0.0000 H   0  0  0  0  0  0  0  0  0  0  0  0
   10.5503   -0.8996    0.0000 H   0  0  0  0  0  0  0  0  0  0  0  0
    9.7932   -0.6504    0.0000 H   0  0  0  0  0  0  0  0  0  0  0  0
    8.5172   -1.7568    0.0000 H   0  0  0  0  0  0  0  0  0  0  0  0
    9.2743   -2.0060    0.0000 H   0  0  0  0  0  0  0  0  0  0  0  0
    7.2052   -1.4776    0.0000 H   0  0  0  0  0  0  0  0  0  0  0  0
    1.3940    0.9789    0.0000 H   0  0  0  0  0  0  0  0  0  0  0  0
    1.9088   -0.6053    0.0000 H   0  0  0  0  0  0  0  0  0  0  0  0
   10.1625   -2.2984    0.0000 H   0  0  0  0  0  0  0  0  0  0  0  0
   10.9195   -2.5476    0.0000 H   0  0  0  0  0  0  0  0  0  0  0  0
   11.7950   -2.3747    0.0000 H   0  0  0  0  0  0  0  0  0  0  0  0
   12.2754   -1.6412    0.0000 H   0  0  0  0  0  0  0  0  0  0  0  0
   11.5419   -1.1608    0.0000 H   0  0  0  0  0  0  0  0  0  0  0  0
  1 18  2  0  0  0  0
  2 10  1  0  0  0  0
  2 18  1  0  0  0  0
  2 32  1  0  0  0  0
  3  4  1  0  0  0  0
  3  6  1  0  0  0  0
  3 21  1  0  0  0  0
  3 22  1  0  0  0  0
  4  5  2  0  0  0  0
  4  9  1  0  0  0  0
  5  7  1  0  0  0  0
  5  8  1  0  0  0  0
  6  7  1  0  0  0  0
  6 11  2  0  0  0  0
  7 12  2  0  0  0  0
  8 10  2  0  0  0  0
  8 23  1  0  0  0  0
  9 13  2  0  0  0  0
  9 24  1  0  0  0  0
 10 13  1  0  0  0  0
 11 16  1  0  0  0  0
 11 25  1  0  0  0  0
 12 17  1  0  0  0  0
 12 26  1  0  0  0  0
 13 27  1  0  0  0  0
 14 15  1  0  0  0  0
 14 19  1  0  0  0  0
 14 28  1  0  0  0  0
 14 29  1  0  0  0  0
 15 18  1  0  0  0  0
 15 30  1  0  0  0  0
 15 31  1  0  0  0  0
 16 17  2  0  0  0  0
 16 33  1  0  0  0  0
 17 34  1  0  0  0  0
 19 20  1  0  0  0  0
 19 35  1  0  0  0  0
 19 36  1  0  0  0  0
 20 37  1  0  0  0  0
 20 38  1  0  0  0  0
 20 39  1  0  0  0  0
M  END
> <PUBCHEM_COMPOUND_CID>
35155687

> <PUBCHEM_COMPOUND_CANONICALIZED>
1

> <PUBCHEM_CACTVS_COMPLEXITY>
340

> <PUBCHEM_CACTVS_HBOND_ACCEPTOR>
1

> <PUBCHEM_CACTVS_HBOND_DONOR>
1

> <PUBCHEM_CACTVS_ROTATABLE_BOND>
4

> <PUBCHEM_CACTVS_SUBSKEYS>
AAADceB6IAAAAAAAAAAAAAAAAAAAAYAAAAAwYAAAAAAAAGABQAAAHgAQAAAADAiBmAAywILAAACIAiVSUACCAAAhAgAIiAEAZIgIIDLAkZGEIAhglADIyAcYgMAOiAAAQAAQAAAQAACAACAAAQAACAAAAA==

> <PUBCHEM_IUPAC_OPENEYE_NAME>
N-(9H-fluoren-3-yl)pentanamide

> <PUBCHEM_IUPAC_CAS_NAME>
N-(9H-fluoren-3-yl)pentanamide

> <PUBCHEM_IUPAC_NAME>
N-(9H-fluoren-3-yl)pentanamide

> <PUBCHEM_IUPAC_SYSTEMATIC_NAME>
N-(9H-fluoren-3-yl)pentanamide

> <PUBCHEM_IUPAC_TRADITIONAL_NAME>
N-(9H-fluoren-3-yl)valeramide

> <PUBCHEM_IUPAC_INCHI>
InChI=1S/C18H19NO/c1-2-3-8-18(20)19-15-10-9-14-11-13-6-4-5-7-16(13)17(14)12-15/h4-7,9-10,12H,2-3,8,11H2,1H3,(H,19,20)

> <PUBCHEM_IUPAC_INCHIKEY>
UQRIJWPQNBFSAT-UHFFFAOYSA-N

> <PUBCHEM_XLOGP3>
5

> <PUBCHEM_EXACT_MASS>
265.146664

> <PUBCHEM_MOLECULAR_FORMULA>
C18H19NO

> <PUBCHEM_MOLECULAR_WEIGHT>
265.34956

> <PUBCHEM_OPENEYE_CAN_SMILES>
CCCCC(=O)NC1=CC2=C(CC3=CC=CC=C32)C=C1

> <PUBCHEM_OPENEYE_ISO_SMILES>
CCCCC(=O)NC1=CC2=C(CC3=CC=CC=C32)C=C1

> <PUBCHEM_CACTVS_TPSA>
29.1

> <PUBCHEM_MONOISOTOPIC_WEIGHT>
265.146664

> <PUBCHEM_TOTAL_CHARGE>
0

> <PUBCHEM_HEAVY_ATOM_COUNT>
20

> <PUBCHEM_ATOM_DEF_STEREO_COUNT>
0

> <PUBCHEM_ATOM_UDEF_STEREO_COUNT>
0

> <PUBCHEM_BOND_DEF_STEREO_COUNT>
0

> <PUBCHEM_BOND_UDEF_STEREO_COUNT>
0

> <PUBCHEM_ISOTOPIC_ATOM_COUNT>
0

> <PUBCHEM_COMPONENT_COUNT>
1

> <PUBCHEM_CACTVS_TAUTO_COUNT>
3

> <PUBCHEM_COORDINATE_TYPE>
1
5
255

> <PUBCHEM_BONDANNOTATIONS>
10  13  8
11  16  8
12  17  8
16  17  8
4  5  8
4  9  8
5  8  8
6  11  8
6  7  8
7  12  8
8  10  8
9  13  8

$$$$
35155715
  -OEChem-10191221442D

 36 38  0     0  0  0  0  0  0999 V2000
    8.6907    0.4694    0.0000 O   0  0  0  0  0  0  0  0  0  0  0  0
    7.3991   -0.6846    0.0000 N   0  0  0  0  0  0  0  0  0  0  0  0
    4.5274    2.1760    0.0000 C   0  0  0  0  0  0  0  0  0  0  0  0
    5.3364    1.5882    0.0000 C   0  0  0  0  0  0  0  0  0  0  0  0
    5.0274    0.6372    0.0000 C   0  0  0  0  0  0  0  0  0  0  0  0
    3.7183    1.5882    0.0000 C   0  0  0  0  0  0  0  0  0  0  0  0
    4.0274    0.6372    0.0000 C   0  0  0  0  0  0  0  0  0  0  0  0
    5.7123   -0.1476    0.0000 C   0  0  0  0  0  0  0  0  0  0  0  0
    6.3518    1.8205    0.0000 C   0  0  0  0  0  0  0  0  0  0  0  0
    6.7328    0.0611    0.0000 C   0  0  0  0  0  0  0  0  0  0  0  0
    2.7029    1.8205    0.0000 C   0  0  0  0  0  0  0  0  0  0  0  0
    3.3424   -0.1476    0.0000 C   0  0  0  0  0  0  0  0  0  0  0  0
    7.0547    1.0518    0.0000 C   0  0  0  0  0  0  0  0  0  0  0  0
    9.0443   -1.2262    0.0000 C   0  0  0  0  0  0  0  0  0  0  0  0
    2.0000    1.0518    0.0000 C   0  0  0  0  0  0  0  0  0  0  0  0
    2.3219    0.0611    0.0000 C   0  0  0  0  0  0  0  0  0  0  0  0
    8.3780   -0.4804    0.0000 C   0  0  0  0  0  0  0  0  0  0  0  0
   10.0232   -1.0220    0.0000 C   0  0  0  0  0  0  0  0  0  0  0  0
    8.7316   -2.1760    0.0000 C   0  0  0  0  0  0  0  0  0  0  0  0
    4.9422    2.6368    0.0000 H   0  0  0  0  0  0  0  0  0  0  0  0
    4.1125    2.6368    0.0000 H   0  0  0  0  0  0  0  0  0  0  0  0
    5.5139   -0.7350    0.0000 H   0  0  0  0  0  0  0  0  0  0  0  0
    6.5365    2.4123    0.0000 H   0  0  0  0  0  0  0  0  0  0  0  0
    2.5182    2.4123    0.0000 H   0  0  0  0  0  0  0  0  0  0  0  0
    3.5408   -0.7350    0.0000 H   0  0  0  0  0  0  0  0  0  0  0  0
    7.6607    1.1830    0.0000 H   0  0  0  0  0  0  0  0  0  0  0  0
    8.4374   -1.3527    0.0000 H   0  0  0  0  0  0  0  0  0  0  0  0
    7.2052   -1.2735    0.0000 H   0  0  0  0  0  0  0  0  0  0  0  0
    1.3940    1.1830    0.0000 H   0  0  0  0  0  0  0  0  0  0  0  0
    1.9088   -0.4012    0.0000 H   0  0  0  0  0  0  0  0  0  0  0  0
   10.1498   -1.6290    0.0000 H   0  0  0  0  0  0  0  0  0  0  0  0
   10.6302   -0.8954    0.0000 H   0  0  0  0  0  0  0  0  0  0  0  0
    8.1427   -1.9822    0.0000 H   0  0  0  0  0  0  0  0  0  0  0  0
    8.5378   -2.7649    0.0000 H   0  0  0  0  0  0  0  0  0  0  0  0
    9.3205   -2.3699    0.0000 H   0  0  0  0  0  0  0  0  0  0  0  0
    9.8967   -0.4151    0.0000 H   0  0  0  0  0  0  0  0  0  0  0  0
  1 17  2  0  0  0  0
  2 10  1  0  0  0  0
  2 17  1  0  0  0  0
  2 28  1  0  0  0  0
  3  4  1  0  0  0  0
  3  6  1  0  0  0  0
  3 20  1  0  0  0  0
  3 21  1  0  0  0  0
  4  5  2  0  0  0  0
  4  9  1  0  0  0  0
  5  7  1  0  0  0  0
  5  8  1  0  0  0  0
  6  7  1  0  0  0  0
  6 11  2  0  0  0  0
  7 12  2  0  0  0  0
  8 10  2  0  0  0  0
  8 22  1  0  0  0  0
  9 13  2  0  0  0  0
  9 23  1  0  0  0  0
 10 13  1  0  0  0  0
 11 15  1  0  0  0  0
 11 24  1  0  0  0  0
 12 16  1  0  0  0  0
 12 25  1  0  0  0  0
 13 26  1  0  0  0  0
 14 17  1  0  0  0  0
 14 18  1  0  0  0  0
 14 19  1  0  0  0  0
 14 27  1  0  0  0  0
 15 16  2  0  0  0  0
 15 29  1  0  0  0  0
 16 30  1  0  0  0  0
 18 31  1  0  0  0  0
 18 32  1  0  0  0  0
 18 36  1  0  0  0  0
 19 33  1  0  0  0  0
 19 34  1  0  0  0  0
 19 35  1  0  0  0  0
M  END
> <PUBCHEM_COMPOUND_CID>
35155715

> <PUBCHEM_COMPOUND_CANONICALIZED>
1

> <PUBCHEM_CACTVS_COMPLEXITY>
338

> <PUBCHEM_CACTVS_HBOND_ACCEPTOR>
1

> <PUBCHEM_CACTVS_HBOND_DONOR>
1

> <PUBCHEM_CACTVS_ROTATABLE_BOND>
2

> <PUBCHEM_CACTVS_SUBSKEYS>
AAADceB6IAAAAAAAAAAAAAAAAAAAAYAAAAAwYAAAAAAAAGABQAAAHgAQAAAADQiBmAAywILAAACIAiVSUACCAAAhAgAIiAEAZIgIICLAkZGEIAhglADIyAcQgMAOiAAAQAAQAAAQAACAACAAAQAACAAAAA==

> <PUBCHEM_IUPAC_OPENEYE_NAME>
N-(9H-fluoren-3-yl)-2-methyl-propanamide

> <PUBCHEM_IUPAC_CAS_NAME>
N-(9H-fluoren-3-yl)-2-methylpropanamide

> <PUBCHEM_IUPAC_NAME>
N-(9H-fluoren-3-yl)-2-methylpropanamide

> <PUBCHEM_IUPAC_SYSTEMATIC_NAME>
N-(9H-fluoren-3-yl)-2-methyl-propanamide

> <PUBCHEM_IUPAC_TRADITIONAL_NAME>
N-(9H-fluoren-3-yl)-2-methyl-propionamide

> <PUBCHEM_IUPAC_INCHI>
InChI=1S/C17H17NO/c1-11(2)17(19)18-14-8-7-13-9-12-5-3-4-6-15(12)16(13)10-14/h3-8,10-11H,9H2,1-2H3,(H,18,19)

> <PUBCHEM_IUPAC_INCHIKEY>
NPECASMTHSPGRC-UHFFFAOYSA-N

> <PUBCHEM_XLOGP3>
4.7

> <PUBCHEM_EXACT_MASS>
251.131014

> <PUBCHEM_MOLECULAR_FORMULA>
C17H17NO

> <PUBCHEM_MOLECULAR_WEIGHT>
251.32298

> <PUBCHEM_OPENEYE_CAN_SMILES>
CC(C)C(=O)NC1=CC2=C(CC3=CC=CC=C32)C=C1

> <PUBCHEM_OPENEYE_ISO_SMILES>
CC(C)C(=O)NC1=CC2=C(CC3=CC=CC=C32)C=C1

> <PUBCHEM_CACTVS_TPSA>
29.1

> <PUBCHEM_MONOISOTOPIC_WEIGHT>
251.131014

> <PUBCHEM_TOTAL_CHARGE>
0

> <PUBCHEM_HEAVY_ATOM_COUNT>
19

> <PUBCHEM_ATOM_DEF_STEREO_COUNT>
0

> <PUBCHEM_ATOM_UDEF_STEREO_COUNT>
0

> <PUBCHEM_BOND_DEF_STEREO_COUNT>
0

> <PUBCHEM_BOND_UDEF_STEREO_COUNT>
0

> <PUBCHEM_ISOTOPIC_ATOM_COUNT>
0

> <PUBCHEM_COMPONENT_COUNT>
1

> <PUBCHEM_CACTVS_TAUTO_COUNT>
3

> <PUBCHEM_COORDINATE_TYPE>
1
5
255

> <PUBCHEM_BONDANNOTATIONS>
10  13  8
11  15  8
12  16  8
15  16  8
4  5  8
4  9  8
5  8  8
6  11  8
6  7  8
7  12  8
8  10  8
9  13  8

$$$$
35163929
  -OEChem-10191221442D

 42 43  0     1  0  0  0  0  0999 V2000
    2.0000   -2.2500    0.0000 Cl  0  0  0  0  0  0  0  0  0  0  0  0
    5.4641   -4.2500    0.0000 Cl  0  0  0  0  0  0  0  0  0  0  0  0
    5.4641   -1.2500    0.0000 O   0  0  0  0  0  0  0  0  0  0  0  0
    5.4641    0.7500    0.0000 N   0  3  3  0  0  0  0  0  0  0  0  0
    3.7321   -1.2500    0.0000 N   0  0  0  0  0  0  0  0  0  0  0  0
    6.3301    1.2500    0.0000 C   0  0  0  0  0  0  0  0  0  0  0  0
    4.5981    0.2500    0.0000 C   0  0  0  0  0  0  0  0  0  0  0  0
    4.9641    1.6160    0.0000 C   0  0  0  0  0  0  0  0  0  0  0  0
    6.3301    2.2500    0.0000 C   0  0  0  0  0  0  0  0  0  0  0  0
    4.5981   -0.7500    0.0000 C   0  0  0  0  0  0  0  0  0  0  0  0
    3.9641    1.6160    0.0000 C   0  0  0  0  0  0  0  0  0  0  0  0
    5.4641    2.7500    0.0000 C   0  0  0  0  0  0  0  0  0  0  0  0
    7.1962    2.7500    0.0000 C   0  0  0  0  0  0  0  0  0  0  0  0
    5.4641    3.7500    0.0000 C   0  0  0  0  0  0  0  0  0  0  0  0
    7.1962    3.7500    0.0000 C   0  0  0  0  0  0  0  0  0  0  0  0
    3.7321   -2.2500    0.0000 C   0  0  0  0  0  0  0  0  0  0  0  0
    6.3301    4.2500    0.0000 C   0  0  0  0  0  0  0  0  0  0  0  0
    3.4641    2.4821    0.0000 C   0  0  0  0  0  0  0  0  0  0  0  0
    2.8660   -2.7500    0.0000 C   0  0  0  0  0  0  0  0  0  0  0  0
    4.5981   -2.7500    0.0000 C   0  0  0  0  0  0  0  0  0  0  0  0
    4.5981   -3.7500    0.0000 C   0  0  0  0  0  0  0  0  0  0  0  0
    2.8660   -3.7500    0.0000 C   0  0  0  0  0  0  0  0  0  0  0  0
    3.7321   -4.2500    0.0000 C   0  0  0  0  0  0  0  0  0  0  0  0
    5.7741    0.2131    0.0000 H   0  0  0  0  0  0  0  0  0  0  0  0
    6.5422    0.6674    0.0000 H   0  0  0  0  0  0  0  0  0  0  0  0
    6.9407    1.3577    0.0000 H   0  0  0  0  0  0  0  0  0  0  0  0
    4.3860    0.8326    0.0000 H   0  0  0  0  0  0  0  0  0  0  0  0
    3.9875    0.1423    0.0000 H   0  0  0  0  0  0  0  0  0  0  0  0
    5.5467    1.8281    0.0000 H   0  0  0  0  0  0  0  0  0  0  0  0
    4.8564    2.2266    0.0000 H   0  0  0  0  0  0  0  0  0  0  0  0
    3.6541    1.0791    0.0000 H   0  0  0  0  0  0  0  0  0  0  0  0
    4.9272    2.4400    0.0000 H   0  0  0  0  0  0  0  0  0  0  0  0
    7.7331    2.4400    0.0000 H   0  0  0  0  0  0  0  0  0  0  0  0
    3.1951   -0.9400    0.0000 H   0  0  0  0  0  0  0  0  0  0  0  0
    4.9272    4.0600    0.0000 H   0  0  0  0  0  0  0  0  0  0  0  0
    7.7331    4.0600    0.0000 H   0  0  0  0  0  0  0  0  0  0  0  0
    6.3301    4.8700    0.0000 H   0  0  0  0  0  0  0  0  0  0  0  0
    3.7741    3.0190    0.0000 H   0  0  0  0  0  0  0  0  0  0  0  0
    2.8441    2.4821    0.0000 H   0  0  0  0  0  0  0  0  0  0  0  0
    5.1350   -2.4400    0.0000 H   0  0  0  0  0  0  0  0  0  0  0  0
    2.3291   -4.0600    0.0000 H   0  0  0  0  0  0  0  0  0  0  0  0
    3.7321   -4.8700    0.0000 H   0  0  0  0  0  0  0  0  0  0  0  0
  1 19  1  0  0  0  0
  2 21  1  0  0  0  0
  3 10  2  0  0  0  0
  4  6  1  0  0  0  0
  4  7  1  0  0  0  0
  4  8  1  0  0  0  0
  4 24  1  0  0  0  0
  5 10  1  0  0  0  0
  5 16  1  0  0  0  0
  5 34  1  0  0  0  0
  6  9  1  0  0  0  0
  6 25  1  0  0  0  0
  6 26  1  0  0  0  0
  7 10  1  0  0  0  0
  7 27  1  0  0  0  0
  7 28  1  0  0  0  0
  8 11  1  0  0  0  0
  8 29  1  0  0  0  0
  8 30  1  0  0  0  0
  9 12  2  0  0  0  0
  9 13  1  0  0  0  0
 11 18  2  0  0  0  0
 11 31  1  0  0  0  0
 12 14  1  0  0  0  0
 12 32  1  0  0  0  0
 13 15  2  0  0  0  0
 13 33  1  0  0  0  0
 14 17  2  0  0  0  0
 14 35  1  0  0  0  0
 15 17  1  0  0  0  0
 15 36  1  0  0  0  0
 16 19  2  0  0  0  0
 16 20  1  0  0  0  0
 17 37  1  0  0  0  0
 18 38  1  0  0  0  0
 18 39  1  0  0  0  0
 19 22  1  0  0  0  0
 20 21  2  0  0  0  0
 20 40  1  0  0  0  0
 21 23  1  0  0  0  0
 22 23  2  0  0  0  0
 22 41  1  0  0  0  0
 23 42  1  0  0  0  0
M  CHG  1   4   1
M  END
> <PUBCHEM_COMPOUND_CID>
35163929

> <PUBCHEM_COMPOUND_CANONICALIZED>
1

> <PUBCHEM_CACTVS_COMPLEXITY>
385

> <PUBCHEM_CACTVS_HBOND_ACCEPTOR>
1

> <PUBCHEM_CACTVS_HBOND_DONOR>
2

> <PUBCHEM_CACTVS_ROTATABLE_BOND>
7

> <PUBCHEM_CACTVS_SUBSKEYS>
AAADceB7IAAGAAAAAAAAAAAAAAAAAAAAAAAwYAAAAAAAAAABQAAAHgIQAAAADArBmCQwwIPAAACIAiVSUACCAAAhBwAIiICIZogIYCLBk7HUIAhglADIyAcQgAAOAAAQAAIAABAAACAABAAAIAAAAAAAAA==

> <PUBCHEM_IUPAC_OPENEYE_NAME>
allyl-benzyl-[2-(2,5-dichloroanilino)-2-oxo-ethyl]ammonium

> <PUBCHEM_IUPAC_CAS_NAME>
[2-(2,5-dichloroanilino)-2-oxoethyl]-(phenylmethyl)-prop-2-enylammonium

> <PUBCHEM_IUPAC_NAME>
benzyl-[2-(2,5-dichloroanilino)-2-oxoethyl]-prop-2-enylazanium

> <PUBCHEM_IUPAC_SYSTEMATIC_NAME>
[2-[[2,5-bis(chloranyl)phenyl]amino]-2-oxidanylidene-ethyl]-(phenylmethyl)-prop-2-enyl-azanium

> <PUBCHEM_IUPAC_TRADITIONAL_NAME>
allyl-benzyl-[2-(2,5-dichloroanilino)-2-keto-ethyl]ammonium

> <PUBCHEM_IUPAC_INCHI>
InChI=1S/C18H18Cl2N2O/c1-2-10-22(12-14-6-4-3-5-7-14)13-18(23)21-17-11-15(19)8-9-16(17)20/h2-9,11H,1,10,12-13H2,(H,21,23)/p+1

> <PUBCHEM_IUPAC_INCHIKEY>
MLWUACHWHWZLPP-UHFFFAOYSA-O

> <PUBCHEM_XLOGP3>
4.4

> <PUBCHEM_EXACT_MASS>
349.087444

> <PUBCHEM_MOLECULAR_FORMULA>
C18H19Cl2N2O+

> <PUBCHEM_MOLECULAR_WEIGHT>
350.26226

> <PUBCHEM_OPENEYE_CAN_SMILES>
C=CC[NH+](CC1=CC=CC=C1)CC(=O)NC2=C(C=CC(=C2)Cl)Cl

> <PUBCHEM_OPENEYE_ISO_SMILES>
C=CC[NH+](CC1=CC=CC=C1)CC(=O)NC2=C(C=CC(=C2)Cl)Cl

> <PUBCHEM_CACTVS_TPSA>
33.5

> <PUBCHEM_MONOISOTOPIC_WEIGHT>
349.087444

> <PUBCHEM_TOTAL_CHARGE>
1

> <PUBCHEM_HEAVY_ATOM_COUNT>
23

> <PUBCHEM_ATOM_DEF_STEREO_COUNT>
0

> <PUBCHEM_ATOM_UDEF_STEREO_COUNT>
0

> <PUBCHEM_BOND_DEF_STEREO_COUNT>
0

> <PUBCHEM_BOND_UDEF_STEREO_COUNT>
0

> <PUBCHEM_ISOTOPIC_ATOM_COUNT>
0

> <PUBCHEM_COMPONENT_COUNT>
1

> <PUBCHEM_CACTVS_TAUTO_COUNT>
2

> <PUBCHEM_COORDINATE_TYPE>
1
5
255

> <PUBCHEM_BONDANNOTATIONS>
12  14  8
13  15  8
14  17  8
15  17  8
16  19  8
16  20  8
19  22  8
20  21  8
21  23  8
22  23  8
9  12  8
9  13  8

$$$$
