45156438
  -OEChem-06181312482D

 22 22  0     0  0  0  0  0  0999 V2000
    3.7320   -0.0600    0.0000 N   0  0  0  0  0  0  0  0  0  0  0  0
    3.7320   -1.0600    0.0000 C   0  0  0  0  0  0  0  0  0  0  0  0
    2.8660   -1.5600    0.0000 C   0  0  0  0  0  0  0  0  0  0  0  0
    4.5981   -1.5600    0.0000 C   0  0  0  0  0  0  0  0  0  0  0  0
    2.8660   -2.5600    0.0000 C   0  0  0  0  0  0  0  0  0  0  0  0
    2.0000   -1.0600    0.0000 C   0  0  0  0  0  0  0  0  0  0  0  0
    4.5981   -2.5600    0.0000 C   0  0  0  0  0  0  0  0  0  0  0  0
    3.7320   -3.0600    0.0000 C   0  0  0  0  0  0  0  0  0  0  0  0
    4.5981    0.4400    0.0000 C   0  0  0  0  0  0  0  0  0  0  0  0
    4.5981    1.4400    0.0000 C   0  0  0  0  0  0  0  0  0  0  0  0
    4.5981    2.4400    0.0000 C   0  0  0  0  0  0  0  0  0  0  0  0
    5.1350   -1.2500    0.0000 H   0  0  0  0  0  0  0  0  0  0  0  0
    2.3291   -2.8700    0.0000 H   0  0  0  0  0  0  0  0  0  0  0  0
    3.1951    0.2500    0.0000 H   0  0  0  0  0  0  0  0  0  0  0  0
    2.3100   -0.5231    0.0000 H   0  0  0  0  0  0  0  0  0  0  0  0
    1.4631   -0.7500    0.0000 H   0  0  0  0  0  0  0  0  0  0  0  0
    1.6900   -1.5969    0.0000 H   0  0  0  0  0  0  0  0  0  0  0  0
    5.1350   -2.8700    0.0000 H   0  0  0  0  0  0  0  0  0  0  0  0
    3.7320   -3.6800    0.0000 H   0  0  0  0  0  0  0  0  0  0  0  0
    4.8101   -0.1426    0.0000 H   0  0  0  0  0  0  0  0  0  0  0  0
    5.2087    0.5477    0.0000 H   0  0  0  0  0  0  0  0  0  0  0  0
    4.5981    3.0600    0.0000 H   0  0  0  0  0  0  0  0  0  0  0  0
  1  2  1  0  0  0  0
  1  9  1  0  0  0  0
  1 14  1  0  0  0  0
  2  3  1  0  0  0  0
  2  4  2  0  0  0  0
  3  5  2  0  0  0  0
  3  6  1  0  0  0  0
  4  7  1  0  0  0  0
  4 12  1  0  0  0  0
  5  8  1  0  0  0  0
  5 13  1  0  0  0  0
  6 15  1  0  0  0  0
  6 16  1  0  0  0  0
  6 17  1  0  0  0  0
  7  8  2  0  0  0  0
  7 18  1  0  0  0  0
  8 19  1  0  0  0  0
  9 10  1  0  0  0  0
  9 20  1  0  0  0  0
  9 21  1  0  0  0  0
 10 11  3  0  0  0  0
 11 22  1  0  0  0  0
M  END
> <PUBCHEM_COMPOUND_CID>
45156438

> <PUBCHEM_COMPOUND_CANONICALIZED>
1

> <PUBCHEM_CACTVS_COMPLEXITY>
154

> <PUBCHEM_CACTVS_HBOND_ACCEPTOR>
1

> <PUBCHEM_CACTVS_HBOND_DONOR>
1

> <PUBCHEM_CACTVS_ROTATABLE_BOND>
2

> <PUBCHEM_CACTVS_SUBSKEYS>
AAADccByAAAAAAAAAAAAAAAAAAAAAAAAAAAwAAAAAAAAAAABAAAAHAAQAAAADAjBGAQywILAAADAGiRCQACCAAAhAgAIiIAIZIgIICLAkZGEIAhgkADIyAcQgAAOAAAAAAACAAAAAAAAAAQAAAAAAAAAAA==

> <PUBCHEM_IUPAC_OPENEYE_NAME>
2-methyl-N-prop-2-ynyl-aniline

> <PUBCHEM_IUPAC_CAS_NAME>
2-methyl-N-prop-2-ynylaniline

> <PUBCHEM_IUPAC_NAME>
2-methyl-N-prop-2-ynylaniline

> <PUBCHEM_IUPAC_SYSTEMATIC_NAME>
2-methyl-N-prop-2-ynyl-aniline

> <PUBCHEM_IUPAC_TRADITIONAL_NAME>
o-tolyl(propargyl)amine

> <PUBCHEM_IUPAC_INCHI>
InChI=1S/C10H11N/c1-3-8-11-10-7-5-4-6-9(10)2/h1,4-7,11H,8H2,2H3

> <PUBCHEM_IUPAC_INCHIKEY>
NTXKFLSQPPCRAT-UHFFFAOYSA-N

> <PUBCHEM_XLOGP3>
2.3

> <PUBCHEM_EXACT_MASS>
145.089149

> <PUBCHEM_MOLECULAR_FORMULA>
C10H11N

> <PUBCHEM_MOLECULAR_WEIGHT>
145.20104

> <PUBCHEM_OPENEYE_CAN_SMILES>
CC1=CC=CC=C1NCC#C

> <PUBCHEM_OPENEYE_ISO_SMILES>
CC1=CC=CC=C1NCC#C

> <PUBCHEM_CACTVS_TPSA>
12

> <PUBCHEM_MONOISOTOPIC_WEIGHT>
145.089149

> <PUBCHEM_TOTAL_CHARGE>
0

> <PUBCHEM_HEAVY_ATOM_COUNT>
11

> <PUBCHEM_ATOM_DEF_STEREO_COUNT>
0

> <PUBCHEM_ATOM_UDEF_STEREO_COUNT>
0

> <PUBCHEM_BOND_DEF_STEREO_COUNT>
0

> <PUBCHEM_BOND_UDEF_STEREO_COUNT>
0

> <PUBCHEM_ISOTOPIC_ATOM_COUNT>
0

> <PUBCHEM_COMPONENT_COUNT>
1

> <PUBCHEM_CACTVS_TAUTO_COUNT>
1

> <PUBCHEM_COORDINATE_TYPE>
1
5
255

> <PUBCHEM_BONDANNOTATIONS>
2  3  8
2  4  8
3  5  8
4  7  8
5  8  8
7  8  8

$$$$
