41783048
  -OEChem-11301217502D

 53 57  0     0  0  0  0  0  0999 V2000
    2.0000   -2.7500    0.0000 O   0  0  0  0  0  0  0  0  0  0  0  0
    5.4641    3.2500    0.0000 O   0  0  0  0  0  0  0  0  0  0  0  0
   11.6065   -1.4453    0.0000 O   0  0  0  0  0  0  0  0  0  0  0  0
   11.6065   -3.0547    0.0000 O   0  0  0  0  0  0  0  0  0  0  0  0
    3.7320   -1.7500    0.0000 N   0  0  0  0  0  0  0  0  0  0  0  0
    5.4641    1.2500    0.0000 N   0  0  0  0  0  0  0  0  0  0  0  0
    4.5981   -0.2500    0.0000 N   0  0  0  0  0  0  0  0  0  0  0  0
    6.3301   -0.2500    0.0000 N   0  0  0  0  0  0  0  0  0  0  0  0
    5.4641   -1.7500    0.0000 N   0  0  0  0  0  0  0  0  0  0  0  0
    7.1962   -1.7500    0.0000 N   0  0  0  0  0  0  0  0  0  0  0  0
    3.7320   -2.7500    0.0000 C   0  0  0  0  0  0  0  0  0  0  0  0
    2.8660   -1.2500    0.0000 C   0  0  0  0  0  0  0  0  0  0  0  0
    4.5981    1.7500    0.0000 C   0  0  0  0  0  0  0  0  0  0  0  0
    6.3301    1.7500    0.0000 C   0  0  0  0  0  0  0  0  0  0  0  0
    2.0000   -1.7500    0.0000 C   0  0  0  0  0  0  0  0  0  0  0  0
    2.8660   -3.2500    0.0000 C   0  0  0  0  0  0  0  0  0  0  0  0
    4.5981    2.7500    0.0000 C   0  0  0  0  0  0  0  0  0  0  0  0
    6.3301    2.7500    0.0000 C   0  0  0  0  0  0  0  0  0  0  0  0
    4.5981   -1.2500    0.0000 C   0  0  0  0  0  0  0  0  0  0  0  0
    5.4641    0.2500    0.0000 C   0  0  0  0  0  0  0  0  0  0  0  0
    6.3301   -1.2500    0.0000 C   0  0  0  0  0  0  0  0  0  0  0  0
    8.0622   -1.2500    0.0000 C   0  0  0  0  0  0  0  0  0  0  0  0
    8.9282   -1.7500    0.0000 C   0  0  0  0  0  0  0  0  0  0  0  0
    9.7942   -1.2500    0.0000 C   0  0  0  0  0  0  0  0  0  0  0  0
   10.6603   -1.7500    0.0000 C   0  0  0  0  0  0  0  0  0  0  0  0
    8.9282   -2.7500    0.0000 C   0  0  0  0  0  0  0  0  0  0  0  0
   10.6603   -2.7500    0.0000 C   0  0  0  0  0  0  0  0  0  0  0  0
    9.7942   -3.2500    0.0000 C   0  0  0  0  0  0  0  0  0  0  0  0
   12.1901   -2.2500    0.0000 C   0  0  0  0  0  0  0  0  0  0  0  0
    3.9441   -3.3326    0.0000 H   0  0  0  0  0  0  0  0  0  0  0  0
    4.3426   -2.6423    0.0000 H   0  0  0  0  0  0  0  0  0  0  0  0
    3.2646   -0.7751    0.0000 H   0  0  0  0  0  0  0  0  0  0  0  0
    2.4675   -0.7751    0.0000 H   0  0  0  0  0  0  0  0  0  0  0  0
    6.5422    1.1674    0.0000 H   0  0  0  0  0  0  0  0  0  0  0  0
    6.9407    1.8577    0.0000 H   0  0  0  0  0  0  0  0  0  0  0  0
    3.9875    1.8577    0.0000 H   0  0  0  0  0  0  0  0  0  0  0  0
    4.3860    1.1674    0.0000 H   0  0  0  0  0  0  0  0  0  0  0  0
    2.4675   -3.7250    0.0000 H   0  0  0  0  0  0  0  0  0  0  0  0
    3.2646   -3.7250    0.0000 H   0  0  0  0  0  0  0  0  0  0  0  0
    1.7880   -1.1674    0.0000 H   0  0  0  0  0  0  0  0  0  0  0  0
    1.3894   -1.8577    0.0000 H   0  0  0  0  0  0  0  0  0  0  0  0
    6.9407    2.6423    0.0000 H   0  0  0  0  0  0  0  0  0  0  0  0
    6.5422    3.3326    0.0000 H   0  0  0  0  0  0  0  0  0  0  0  0
    4.3860    3.3326    0.0000 H   0  0  0  0  0  0  0  0  0  0  0  0
    3.9875    2.6423    0.0000 H   0  0  0  0  0  0  0  0  0  0  0  0
    8.4607   -0.7751    0.0000 H   0  0  0  0  0  0  0  0  0  0  0  0
    7.6636   -0.7751    0.0000 H   0  0  0  0  0  0  0  0  0  0  0  0
    7.1962   -2.3700    0.0000 H   0  0  0  0  0  0  0  0  0  0  0  0
    9.7942   -0.6300    0.0000 H   0  0  0  0  0  0  0  0  0  0  0  0
    8.3913   -3.0600    0.0000 H   0  0  0  0  0  0  0  0  0  0  0  0
    9.7942   -3.8700    0.0000 H   0  0  0  0  0  0  0  0  0  0  0  0
   12.6510   -2.6647    0.0000 H   0  0  0  0  0  0  0  0  0  0  0  0
   12.6510   -1.8353    0.0000 H   0  0  0  0  0  0  0  0  0  0  0  0
  1 15  1  0  0  0  0
  1 16  1  0  0  0  0
  2 17  1  0  0  0  0
  2 18  1  0  0  0  0
  3 25  1  0  0  0  0
  3 29  1  0  0  0  0
  4 27  1  0  0  0  0
  4 29  1  0  0  0  0
  5 11  1  0  0  0  0
  5 12  1  0  0  0  0
  5 19  1  0  0  0  0
  6 13  1  0  0  0  0
  6 14  1  0  0  0  0
  6 20  1  0  0  0  0
  7 19  2  0  0  0  0
  7 20  1  0  0  0  0
  8 20  2  0  0  0  0
  8 21  1  0  0  0  0
  9 19  1  0  0  0  0
  9 21  2  0  0  0  0
 10 21  1  0  0  0  0
 10 22  1  0  0  0  0
 10 48  1  0  0  0  0
 11 16  1  0  0  0  0
 11 30  1  0  0  0  0
 11 31  1  0  0  0  0
 12 15  1  0  0  0  0
 12 32  1  0  0  0  0
 12 33  1  0  0  0  0
 13 17  1  0  0  0  0
 13 36  1  0  0  0  0
 13 37  1  0  0  0  0
 14 18  1  0  0  0  0
 14 34  1  0  0  0  0
 14 35  1  0  0  0  0
 15 40  1  0  0  0  0
 15 41  1  0  0  0  0
 16 38  1  0  0  0  0
 16 39  1  0  0  0  0
 17 44  1  0  0  0  0
 17 45  1  0  0  0  0
 18 42  1  0  0  0  0
 18 43  1  0  0  0  0
 22 23  1  0  0  0  0
 22 46  1  0  0  0  0
 22 47  1  0  0  0  0
 23 24  2  0  0  0  0
 23 26  1  0  0  0  0
 24 25  1  0  0  0  0
 24 49  1  0  0  0  0
 25 27  2  0  0  0  0
 26 28  2  0  0  0  0
 26 50  1  0  0  0  0
 27 28  1  0  0  0  0
 28 51  1  0  0  0  0
 29 52  1  0  0  0  0
 29 53  1  0  0  0  0
M  END
> <PUBCHEM_COMPOUND_CID>
41783048

> <PUBCHEM_COMPOUND_CANONICALIZED>
1

> <PUBCHEM_CACTVS_COMPLEXITY>
493

> <PUBCHEM_CACTVS_HBOND_ACCEPTOR>
10

> <PUBCHEM_CACTVS_HBOND_DONOR>
1

> <PUBCHEM_CACTVS_ROTATABLE_BOND>
5

> <PUBCHEM_CACTVS_SUBSKEYS>
AAADceB7uAAAAAAAAAAAAAAAAAAAASAAAAA8WLEAAAAAAEgBwAAAHgAQAAAADAThmAcxHofIFACgAiBCJACCCAkgIIAJiIAOjIifLiKEuRunMCpswBOeqAew0BIOIAABAAAAQABAAAIAAACAAAAAAAAAAA==

> <PUBCHEM_IUPAC_OPENEYE_NAME>
N-(1,3-benzodioxol-5-ylmethyl)-4,6-dimorpholino-1,3,5-triazin-2-amine

> <PUBCHEM_IUPAC_CAS_NAME>
N-(1,3-benzodioxol-5-ylmethyl)-4,6-bis(4-morpholinyl)-1,3,5-triazin-2-amine

> <PUBCHEM_IUPAC_NAME>
N-(1,3-benzodioxol-5-ylmethyl)-4,6-dimorpholin-4-yl-1,3,5-triazin-2-amine

> <PUBCHEM_IUPAC_SYSTEMATIC_NAME>
N-(1,3-benzodioxol-5-ylmethyl)-4,6-dimorpholin-4-yl-1,3,5-triazin-2-amine

> <PUBCHEM_IUPAC_TRADITIONAL_NAME>
(4,6-dimorpholino-s-triazin-2-yl)-piperonyl-amine

> <PUBCHEM_IUPAC_INCHI>
InChI=1S/C19H24N6O4/c1-2-15-16(29-13-28-15)11-14(1)12-20-17-21-18(24-3-7-26-8-4-24)23-19(22-17)25-5-9-27-10-6-25/h1-2,11H,3-10,12-13H2,(H,20,21,22,23)

> <PUBCHEM_IUPAC_INCHIKEY>
RJFSPNUAKKECJC-UHFFFAOYSA-N

> <PUBCHEM_XLOGP3>
2

> <PUBCHEM_EXACT_MASS>
400.185903

> <PUBCHEM_MOLECULAR_FORMULA>
C19H24N6O4

> <PUBCHEM_MOLECULAR_WEIGHT>
400.43166

> <PUBCHEM_OPENEYE_CAN_SMILES>
C1COCCN1C2=NC(=NC(=N2)NCC3=CC4=C(C=C3)OCO4)N5CCOCC5

> <PUBCHEM_OPENEYE_ISO_SMILES>
C1COCCN1C2=NC(=NC(=N2)NCC3=CC4=C(C=C3)OCO4)N5CCOCC5

> <PUBCHEM_CACTVS_TPSA>
94.1

> <PUBCHEM_MONOISOTOPIC_WEIGHT>
400.185903

> <PUBCHEM_TOTAL_CHARGE>
0

> <PUBCHEM_HEAVY_ATOM_COUNT>
29

> <PUBCHEM_ATOM_DEF_STEREO_COUNT>
0

> <PUBCHEM_ATOM_UDEF_STEREO_COUNT>
0

> <PUBCHEM_BOND_DEF_STEREO_COUNT>
0

> <PUBCHEM_BOND_UDEF_STEREO_COUNT>
0

> <PUBCHEM_ISOTOPIC_ATOM_COUNT>
0

> <PUBCHEM_COMPONENT_COUNT>
1

> <PUBCHEM_CACTVS_TAUTO_COUNT>
3

> <PUBCHEM_COORDINATE_TYPE>
1
5
255

> <PUBCHEM_BONDANNOTATIONS>
23  24  8
23  26  8
24  25  8
25  27  8
26  28  8
27  28  8
7  19  8
7  20  8
8  20  8
8  21  8
9  19  8
9  21  8

$$$$
41790588
  -OEChem-11301217512D

 40 42  0     1  0  0  0  0  0999 V2000
    5.4641   -0.1340    0.0000 N   0  3  3  0  0  0  0  0  0  0  0  0
    2.8660   -1.6340    0.0000 N   0  0  0  0  0  0  0  0  0  0  0  0
    4.5981    0.3660    0.0000 C   0  0  1  0  0  0  0  0  0  0  0  0
    6.3301    0.3660    0.0000 C   0  0  0  0  0  0  0  0  0  0  0  0
    4.5981    1.3660    0.0000 C   0  0  0  0  0  0  0  0  0  0  0  0
    6.3301    1.3660    0.0000 C   0  0  0  0  0  0  0  0  0  0  0  0
    5.4641    1.8660    0.0000 C   0  0  0  0  0  0  0  0  0  0  0  0
    5.9641   -1.0000    0.0000 C   0  0  0  0  0  0  0  0  0  0  0  0
    3.7320   -0.1340    0.0000 C   0  0  0  0  0  0  0  0  0  0  0  0
    6.9641   -1.0000    0.0000 C   0  0  0  0  0  0  0  0  0  0  0  0
    2.8660    0.3660    0.0000 C   0  0  0  0  0  0  0  0  0  0  0  0
    3.7320   -1.1340    0.0000 C   0  0  0  0  0  0  0  0  0  0  0  0
    7.4641   -1.8660    0.0000 C   0  0  0  0  0  0  0  0  0  0  0  0
    7.4641   -0.1340    0.0000 C   0  0  0  0  0  0  0  0  0  0  0  0
    2.0000   -0.1340    0.0000 C   0  0  0  0  0  0  0  0  0  0  0  0
    8.4641   -1.8660    0.0000 C   0  0  0  0  0  0  0  0  0  0  0  0
    8.4641   -0.1340    0.0000 C   0  0  0  0  0  0  0  0  0  0  0  0
    2.0000   -1.1340    0.0000 C   0  0  0  0  0  0  0  0  0  0  0  0
    8.9641   -1.0000    0.0000 C   0  0  0  0  0  0  0  0  0  0  0  0
    5.1541   -0.6709    0.0000 H   0  0  0  0  0  0  0  0  0  0  0  0
    4.5981   -0.2540    0.0000 H   0  0  0  0  0  0  0  0  0  0  0  0
    6.5422   -0.2166    0.0000 H   0  0  0  0  0  0  0  0  0  0  0  0
    6.9407    0.4737    0.0000 H   0  0  0  0  0  0  0  0  0  0  0  0
    4.3860    1.9486    0.0000 H   0  0  0  0  0  0  0  0  0  0  0  0
    3.9875    1.2584    0.0000 H   0  0  0  0  0  0  0  0  0  0  0  0
    6.9407    1.2584    0.0000 H   0  0  0  0  0  0  0  0  0  0  0  0
    6.5422    1.9486    0.0000 H   0  0  0  0  0  0  0  0  0  0  0  0
    5.8626    2.3410    0.0000 H   0  0  0  0  0  0  0  0  0  0  0  0
    5.0656    2.3410    0.0000 H   0  0  0  0  0  0  0  0  0  0  0  0
    5.3815   -1.2120    0.0000 H   0  0  0  0  0  0  0  0  0  0  0  0
    6.0718   -1.6106    0.0000 H   0  0  0  0  0  0  0  0  0  0  0  0
    2.8660    0.9860    0.0000 H   0  0  0  0  0  0  0  0  0  0  0  0
    4.2690   -1.4440    0.0000 H   0  0  0  0  0  0  0  0  0  0  0  0
    7.1541   -2.4030    0.0000 H   0  0  0  0  0  0  0  0  0  0  0  0
    7.1541    0.4030    0.0000 H   0  0  0  0  0  0  0  0  0  0  0  0
    1.4631    0.1760    0.0000 H   0  0  0  0  0  0  0  0  0  0  0  0
    8.7741   -2.4030    0.0000 H   0  0  0  0  0  0  0  0  0  0  0  0
    8.7741    0.4030    0.0000 H   0  0  0  0  0  0  0  0  0  0  0  0
    1.4631   -1.4440    0.0000 H   0  0  0  0  0  0  0  0  0  0  0  0
    9.5841   -1.0000    0.0000 H   0  0  0  0  0  0  0  0  0  0  0  0
  1  3  1  0  0  0  0
  1  4  1  0  0  0  0
  1  8  1  0  0  0  0
  1 20  1  0  0  0  0
  2 12  1  0  0  0  0
  2 18  2  0  0  0  0
  3  5  1  0  0  0  0
  3  9  1  6  0  0  0
  3 21  1  0  0  0  0
  4  6  1  0  0  0  0
  4 22  1  0  0  0  0
  4 23  1  0  0  0  0
  5  7  1  0  0  0  0
  5 24  1  0  0  0  0
  5 25  1  0  0  0  0
  6  7  1  0  0  0  0
  6 26  1  0  0  0  0
  6 27  1  0  0  0  0
  7 28  1  0  0  0  0
  7 29  1  0  0  0  0
  8 10  1  0  0  0  0
  8 30  1  0  0  0  0
  8 31  1  0  0  0  0
  9 11  1  0  0  0  0
  9 12  2  0  0  0  0
 10 13  2  0  0  0  0
 10 14  1  0  0  0  0
 11 15  2  0  0  0  0
 11 32  1  0  0  0  0
 12 33  1  0  0  0  0
 13 16  1  0  0  0  0
 13 34  1  0  0  0  0
 14 17  2  0  0  0  0
 14 35  1  0  0  0  0
 15 18  1  0  0  0  0
 15 36  1  0  0  0  0
 16 19  2  0  0  0  0
 16 37  1  0  0  0  0
 17 19  1  0  0  0  0
 17 38  1  0  0  0  0
 18 39  1  0  0  0  0
 19 40  1  0  0  0  0
M  CHG  1   1   1
M  END
> <PUBCHEM_COMPOUND_CID>
41790588

> <PUBCHEM_COMPOUND_CANONICALIZED>
1

> <PUBCHEM_CACTVS_COMPLEXITY>
260

> <PUBCHEM_CACTVS_HBOND_ACCEPTOR>
1

> <PUBCHEM_CACTVS_HBOND_DONOR>
1

> <PUBCHEM_CACTVS_ROTATABLE_BOND>
3

> <PUBCHEM_CACTVS_SUBSKEYS>
AAADceB7AAAAAAAAAAAAAAAAAAAAAAAAAAA8WIAAAAAAAAABwAAAHAAQAAAADCjBGgQ8gJPIEACgAjBnRACCgCAxAiAI2KA4ZJgIIOLA0ZGEIAhgkADIyAcQgMAOAAAAAAAAAAAAAAAAAAAAAAAAAAAAAA==

> <PUBCHEM_IUPAC_OPENEYE_NAME>
3-[(2S)-1-benzylpiperidin-1-ium-2-yl]pyridine

> <PUBCHEM_IUPAC_CAS_NAME>
3-[(2S)-1-(phenylmethyl)-2-piperidin-1-iumyl]pyridine

> <PUBCHEM_IUPAC_NAME>
3-[(2S)-1-benzylpiperidin-1-ium-2-yl]pyridine

> <PUBCHEM_IUPAC_SYSTEMATIC_NAME>
3-[(2S)-1-(phenylmethyl)piperidin-1-ium-2-yl]pyridine

> <PUBCHEM_IUPAC_TRADITIONAL_NAME>
3-[(2S)-1-benzylpiperidin-1-ium-2-yl]pyridine

> <PUBCHEM_IUPAC_INCHI>
InChI=1S/C17H20N2/c1-2-7-15(8-3-1)14-19-12-5-4-10-17(19)16-9-6-11-18-13-16/h1-3,6-9,11,13,17H,4-5,10,12,14H2/p+1/t17-/m0/s1

> <PUBCHEM_IUPAC_INCHIKEY>
CZSIMASWFULERI-KRWDZBQOSA-O

> <PUBCHEM_XLOGP3>
2.5

> <PUBCHEM_EXACT_MASS>
253.170474

> <PUBCHEM_MOLECULAR_FORMULA>
C17H21N2+

> <PUBCHEM_MOLECULAR_WEIGHT>
253.36204

> <PUBCHEM_OPENEYE_CAN_SMILES>
C1CC[NH+](C(C1)C2=CN=CC=C2)CC3=CC=CC=C3

> <PUBCHEM_OPENEYE_ISO_SMILES>
C1CC[NH+]([C@@H](C1)C2=CN=CC=C2)CC3=CC=CC=C3

> <PUBCHEM_CACTVS_TPSA>
17.3

> <PUBCHEM_MONOISOTOPIC_WEIGHT>
253.170474

> <PUBCHEM_TOTAL_CHARGE>
1

> <PUBCHEM_HEAVY_ATOM_COUNT>
19

> <PUBCHEM_ATOM_DEF_STEREO_COUNT>
1

> <PUBCHEM_ATOM_UDEF_STEREO_COUNT>
0

> <PUBCHEM_BOND_DEF_STEREO_COUNT>
0

> <PUBCHEM_BOND_UDEF_STEREO_COUNT>
0

> <PUBCHEM_ISOTOPIC_ATOM_COUNT>
0

> <PUBCHEM_COMPONENT_COUNT>
1

> <PUBCHEM_CACTVS_TAUTO_COUNT>
1

> <PUBCHEM_COORDINATE_TYPE>
1
5
255

> <PUBCHEM_BONDANNOTATIONS>
10  13  8
10  14  8
11  15  8
13  16  8
14  17  8
15  18  8
16  19  8
17  19  8
2  12  8
2  18  8
3  9  6
9  11  8
9  12  8

$$$$
41790589
  -OEChem-11301217512D

 40 42  0     1  0  0  0  0  0999 V2000
    5.4641   -0.1340    0.0000 N   0  3  3  0  0  0  0  0  0  0  0  0
    2.8660   -1.6340    0.0000 N   0  0  0  0  0  0  0  0  0  0  0  0
    4.5981    0.3660    0.0000 C   0  0  2  0  0  0  0  0  0  0  0  0
    6.3301    0.3660    0.0000 C   0  0  0  0  0  0  0  0  0  0  0  0
    4.5981    1.3660    0.0000 C   0  0  0  0  0  0  0  0  0  0  0  0
    6.3301    1.3660    0.0000 C   0  0  0  0  0  0  0  0  0  0  0  0
    5.4641    1.8660    0.0000 C   0  0  0  0  0  0  0  0  0  0  0  0
    5.9641   -1.0000    0.0000 C   0  0  0  0  0  0  0  0  0  0  0  0
    3.7320   -0.1340    0.0000 C   0  0  0  0  0  0  0  0  0  0  0  0
    6.9641   -1.0000    0.0000 C   0  0  0  0  0  0  0  0  0  0  0  0
    2.8660    0.3660    0.0000 C   0  0  0  0  0  0  0  0  0  0  0  0
    3.7320   -1.1340    0.0000 C   0  0  0  0  0  0  0  0  0  0  0  0
    7.4641   -1.8660    0.0000 C   0  0  0  0  0  0  0  0  0  0  0  0
    7.4641   -0.1340    0.0000 C   0  0  0  0  0  0  0  0  0  0  0  0
    2.0000   -0.1340    0.0000 C   0  0  0  0  0  0  0  0  0  0  0  0
    8.4641   -1.8660    0.0000 C   0  0  0  0  0  0  0  0  0  0  0  0
    8.4641   -0.1340    0.0000 C   0  0  0  0  0  0  0  0  0  0  0  0
    2.0000   -1.1340    0.0000 C   0  0  0  0  0  0  0  0  0  0  0  0
    8.9641   -1.0000    0.0000 C   0  0  0  0  0  0  0  0  0  0  0  0
    5.1541   -0.6709    0.0000 H   0  0  0  0  0  0  0  0  0  0  0  0
    4.5981   -0.2540    0.0000 H   0  0  0  0  0  0  0  0  0  0  0  0
    6.5422   -0.2166    0.0000 H   0  0  0  0  0  0  0  0  0  0  0  0
    6.9407    0.4737    0.0000 H   0  0  0  0  0  0  0  0  0  0  0  0
    4.3860    1.9486    0.0000 H   0  0  0  0  0  0  0  0  0  0  0  0
    3.9875    1.2584    0.0000 H   0  0  0  0  0  0  0  0  0  0  0  0
    6.9407    1.2584    0.0000 H   0  0  0  0  0  0  0  0  0  0  0  0
    6.5422    1.9486    0.0000 H   0  0  0  0  0  0  0  0  0  0  0  0
    5.8626    2.3410    0.0000 H   0  0  0  0  0  0  0  0  0  0  0  0
    5.0656    2.3410    0.0000 H   0  0  0  0  0  0  0  0  0  0  0  0
    5.3815   -1.2120    0.0000 H   0  0  0  0  0  0  0  0  0  0  0  0
    6.0718   -1.6106    0.0000 H   0  0  0  0  0  0  0  0  0  0  0  0
    2.8660    0.9860    0.0000 H   0  0  0  0  0  0  0  0  0  0  0  0
    4.2690   -1.4440    0.0000 H   0  0  0  0  0  0  0  0  0  0  0  0
    7.1541   -2.4030    0.0000 H   0  0  0  0  0  0  0  0  0  0  0  0
    7.1541    0.4030    0.0000 H   0  0  0  0  0  0  0  0  0  0  0  0
    1.4631    0.1760    0.0000 H   0  0  0  0  0  0  0  0  0  0  0  0
    8.7741   -2.4030    0.0000 H   0  0  0  0  0  0  0  0  0  0  0  0
    8.7741    0.4030    0.0000 H   0  0  0  0  0  0  0  0  0  0  0  0
    1.4631   -1.4440    0.0000 H   0  0  0  0  0  0  0  0  0  0  0  0
    9.5841   -1.0000    0.0000 H   0  0  0  0  0  0  0  0  0  0  0  0
  1  3  1  0  0  0  0
  1  4  1  0  0  0  0
  1  8  1  0  0  0  0
  1 20  1  0  0  0  0
  2 12  1  0  0  0  0
  2 18  2  0  0  0  0
  3  5  1  0  0  0  0
  3  9  1  1  0  0  0
  3 21  1  0  0  0  0
  4  6  1  0  0  0  0
  4 22  1  0  0  0  0
  4 23  1  0  0  0  0
  5  7  1  0  0  0  0
  5 24  1  0  0  0  0
  5 25  1  0  0  0  0
  6  7  1  0  0  0  0
  6 26  1  0  0  0  0
  6 27  1  0  0  0  0
  7 28  1  0  0  0  0
  7 29  1  0  0  0  0
  8 10  1  0  0  0  0
  8 30  1  0  0  0  0
  8 31  1  0  0  0  0
  9 11  1  0  0  0  0
  9 12  2  0  0  0  0
 10 13  2  0  0  0  0
 10 14  1  0  0  0  0
 11 15  2  0  0  0  0
 11 32  1  0  0  0  0
 12 33  1  0  0  0  0
 13 16  1  0  0  0  0
 13 34  1  0  0  0  0
 14 17  2  0  0  0  0
 14 35  1  0  0  0  0
 15 18  1  0  0  0  0
 15 36  1  0  0  0  0
 16 19  2  0  0  0  0
 16 37  1  0  0  0  0
 17 19  1  0  0  0  0
 17 38  1  0  0  0  0
 18 39  1  0  0  0  0
 19 40  1  0  0  0  0
M  CHG  1   1   1
M  END
> <PUBCHEM_COMPOUND_CID>
41790589

> <PUBCHEM_COMPOUND_CANONICALIZED>
1

> <PUBCHEM_CACTVS_COMPLEXITY>
260

> <PUBCHEM_CACTVS_HBOND_ACCEPTOR>
1

> <PUBCHEM_CACTVS_HBOND_DONOR>
1

> <PUBCHEM_CACTVS_ROTATABLE_BOND>
3

> <PUBCHEM_CACTVS_SUBSKEYS>
AAADceB7AAAAAAAAAAAAAAAAAAAAAAAAAAA8WIAAAAAAAAABwAAAHAAQAAAADCjBGgQ8gJPIEACgAjBnRACCgCAxAiAI2KA4ZJgIIOLA0ZGEIAhgkADIyAcQgMAOAAAAAAAAAAAAAAAAAAAAAAAAAAAAAA==

> <PUBCHEM_IUPAC_OPENEYE_NAME>
3-[(2R)-1-benzylpiperidin-1-ium-2-yl]pyridine

> <PUBCHEM_IUPAC_CAS_NAME>
3-[(2R)-1-(phenylmethyl)-2-piperidin-1-iumyl]pyridine

> <PUBCHEM_IUPAC_NAME>
3-[(2R)-1-benzylpiperidin-1-ium-2-yl]pyridine

> <PUBCHEM_IUPAC_SYSTEMATIC_NAME>
3-[(2R)-1-(phenylmethyl)piperidin-1-ium-2-yl]pyridine

> <PUBCHEM_IUPAC_TRADITIONAL_NAME>
3-[(2R)-1-benzylpiperidin-1-ium-2-yl]pyridine

> <PUBCHEM_IUPAC_INCHI>
InChI=1S/C17H20N2/c1-2-7-15(8-3-1)14-19-12-5-4-10-17(19)16-9-6-11-18-13-16/h1-3,6-9,11,13,17H,4-5,10,12,14H2/p+1/t17-/m1/s1

> <PUBCHEM_IUPAC_INCHIKEY>
CZSIMASWFULERI-QGZVFWFLSA-O

> <PUBCHEM_XLOGP3>
2.5

> <PUBCHEM_EXACT_MASS>
253.170474

> <PUBCHEM_MOLECULAR_FORMULA>
C17H21N2+

> <PUBCHEM_MOLECULAR_WEIGHT>
253.36204

> <PUBCHEM_OPENEYE_CAN_SMILES>
C1CC[NH+](C(C1)C2=CN=CC=C2)CC3=CC=CC=C3

> <PUBCHEM_OPENEYE_ISO_SMILES>
C1CC[NH+]([C@H](C1)C2=CN=CC=C2)CC3=CC=CC=C3

> <PUBCHEM_CACTVS_TPSA>
17.3

> <PUBCHEM_MONOISOTOPIC_WEIGHT>
253.170474

> <PUBCHEM_TOTAL_CHARGE>
1

> <PUBCHEM_HEAVY_ATOM_COUNT>
19

> <PUBCHEM_ATOM_DEF_STEREO_COUNT>
1

> <PUBCHEM_ATOM_UDEF_STEREO_COUNT>
0

> <PUBCHEM_BOND_DEF_STEREO_COUNT>
0

> <PUBCHEM_BOND_UDEF_STEREO_COUNT>
0

> <PUBCHEM_ISOTOPIC_ATOM_COUNT>
0

> <PUBCHEM_COMPONENT_COUNT>
1

> <PUBCHEM_CACTVS_TAUTO_COUNT>
1

> <PUBCHEM_COORDINATE_TYPE>
1
5
255

> <PUBCHEM_BONDANNOTATIONS>
10  13  8
10  14  8
11  15  8
13  16  8
14  17  8
15  18  8
16  19  8
17  19  8
2  12  8
2  18  8
3  9  5
9  11  8
9  12  8

$$$$
41790793
  -OEChem-11301217512D

 48 50  0     0  0  0  0  0  0999 V2000
    6.1808    0.1216    0.0000 O   0  0  0  0  0  0  0  0  0  0  0  0
    3.5827   -4.3784    0.0000 N   0  3  0  0  0  0  0  0  0  0  0  0
    4.4487    0.1216    0.0000 N   0  0  0  0  0  0  0  0  0  0  0  0
    3.0827   -3.5124    0.0000 C   0  0  0  0  0  0  0  0  0  0  0  0
    2.9136   -5.1216    0.0000 C   0  0  0  0  0  0  0  0  0  0  0  0
    2.1045   -3.7203    0.0000 C   0  0  0  0  0  0  0  0  0  0  0  0
    2.0000   -4.7148    0.0000 C   0  0  0  0  0  0  0  0  0  0  0  0
    4.4487   -3.8784    0.0000 C   0  0  0  0  0  0  0  0  0  0  0  0
    4.4487   -2.8784    0.0000 C   0  0  0  0  0  0  0  0  0  0  0  0
    3.5827   -2.3784    0.0000 C   0  0  0  0  0  0  0  0  0  0  0  0
    5.3147   -2.3784    0.0000 C   0  0  0  0  0  0  0  0  0  0  0  0
    3.5827   -1.3784    0.0000 C   0  0  0  0  0  0  0  0  0  0  0  0
    5.3147   -1.3784    0.0000 C   0  0  0  0  0  0  0  0  0  0  0  0
    4.4487   -0.8784    0.0000 C   0  0  0  0  0  0  0  0  0  0  0  0
    5.3147    0.6216    0.0000 C   0  0  0  0  0  0  0  0  0  0  0  0
    5.3147    1.6216    0.0000 C   0  0  0  0  0  0  0  0  0  0  0  0
    5.3147    3.6216    0.0000 C   0  0  0  0  0  0  0  0  0  0  0  0
    4.4487    2.1216    0.0000 C   0  0  0  0  0  0  0  0  0  0  0  0
    6.1808    2.1216    0.0000 C   0  0  0  0  0  0  0  0  0  0  0  0
    5.3147    4.6216    0.0000 C   0  0  0  0  0  0  0  0  0  0  0  0
    4.4487    3.1216    0.0000 C   0  0  0  0  0  0  0  0  0  0  0  0
    6.1808    3.1216    0.0000 C   0  0  0  0  0  0  0  0  0  0  0  0
    6.1808    5.1216    0.0000 C   0  0  0  0  0  0  0  0  0  0  0  0
    4.3258   -5.0476    0.0000 H   0  0  0  0  0  0  0  0  0  0  0  0
    3.6491   -3.2602    0.0000 H   0  0  0  0  0  0  0  0  0  0  0  0
    2.8911   -2.9228    0.0000 H   0  0  0  0  0  0  0  0  0  0  0  0
    2.6035   -5.6585    0.0000 H   0  0  0  0  0  0  0  0  0  0  0  0
    3.4151   -5.4860    0.0000 H   0  0  0  0  0  0  0  0  0  0  0  0
    2.0397   -3.1037    0.0000 H   0  0  0  0  0  0  0  0  0  0  0  0
    1.4845   -3.7203    0.0000 H   0  0  0  0  0  0  0  0  0  0  0  0
    1.3936   -4.5859    0.0000 H   0  0  0  0  0  0  0  0  0  0  0  0
    1.8084   -5.3045    0.0000 H   0  0  0  0  0  0  0  0  0  0  0  0
    4.6608   -4.4610    0.0000 H   0  0  0  0  0  0  0  0  0  0  0  0
    5.0593   -3.7708    0.0000 H   0  0  0  0  0  0  0  0  0  0  0  0
    3.0457   -2.6884    0.0000 H   0  0  0  0  0  0  0  0  0  0  0  0
    5.8517   -2.6884    0.0000 H   0  0  0  0  0  0  0  0  0  0  0  0
    3.0457   -1.0684    0.0000 H   0  0  0  0  0  0  0  0  0  0  0  0
    5.8517   -1.0684    0.0000 H   0  0  0  0  0  0  0  0  0  0  0  0
    3.9118    0.4316    0.0000 H   0  0  0  0  0  0  0  0  0  0  0  0
    5.1027    5.2042    0.0000 H   0  0  0  0  0  0  0  0  0  0  0  0
    4.7042    4.5139    0.0000 H   0  0  0  0  0  0  0  0  0  0  0  0
    3.9118    1.8116    0.0000 H   0  0  0  0  0  0  0  0  0  0  0  0
    6.7177    1.8116    0.0000 H   0  0  0  0  0  0  0  0  0  0  0  0
    3.9118    3.4316    0.0000 H   0  0  0  0  0  0  0  0  0  0  0  0
    6.7177    3.4316    0.0000 H   0  0  0  0  0  0  0  0  0  0  0  0
    6.4908    4.5846    0.0000 H   0  0  0  0  0  0  0  0  0  0  0  0
    6.7177    5.4316    0.0000 H   0  0  0  0  0  0  0  0  0  0  0  0
    5.8708    5.6585    0.0000 H   0  0  0  0  0  0  0  0  0  0  0  0
  1 15  2  0  0  0  0
  2  4  1  0  0  0  0
  2  5  1  0  0  0  0
  2  8  1  0  0  0  0
  2 24  1  0  0  0  0
  3 14  1  0  0  0  0
  3 15  1  0  0  0  0
  3 39  1  0  0  0  0
  4  6  1  0  0  0  0
  4 25  1  0  0  0  0
  4 26  1  0  0  0  0
  5  7  1  0  0  0  0
  5 27  1  0  0  0  0
  5 28  1  0  0  0  0
  6  7  1  0  0  0  0
  6 29  1  0  0  0  0
  6 30  1  0  0  0  0
  7 31  1  0  0  0  0
  7 32  1  0  0  0  0
  8  9  1  0  0  0  0
  8 33  1  0  0  0  0
  8 34  1  0  0  0  0
  9 10  2  0  0  0  0
  9 11  1  0  0  0  0
 10 12  1  0  0  0  0
 10 35  1  0  0  0  0
 11 13  2  0  0  0  0
 11 36  1  0  0  0  0
 12 14  2  0  0  0  0
 12 37  1  0  0  0  0
 13 14  1  0  0  0  0
 13 38  1  0  0  0  0
 15 16  1  0  0  0  0
 16 18  2  0  0  0  0
 16 19  1  0  0  0  0
 17 20  1  0  0  0  0
 17 21  2  0  0  0  0
 17 22  1  0  0  0  0
 18 21  1  0  0  0  0
 18 42  1  0  0  0  0
 19 22  2  0  0  0  0
 19 43  1  0  0  0  0
 20 23  1  0  0  0  0
 20 40  1  0  0  0  0
 20 41  1  0  0  0  0
 21 44  1  0  0  0  0
 22 45  1  0  0  0  0
 23 46  1  0  0  0  0
 23 47  1  0  0  0  0
 23 48  1  0  0  0  0
M  CHG  1   2   1
M  END
> <PUBCHEM_COMPOUND_CID>
41790793

> <PUBCHEM_COMPOUND_CANONICALIZED>
1

> <PUBCHEM_CACTVS_COMPLEXITY>
362

> <PUBCHEM_CACTVS_HBOND_ACCEPTOR>
1

> <PUBCHEM_CACTVS_HBOND_DONOR>
2

> <PUBCHEM_CACTVS_ROTATABLE_BOND>
5

> <PUBCHEM_CACTVS_SUBSKEYS>
AAADceB7IAAAAAAAAAAAAAAAAAAAAWAAAAAwYAAAAAAAAAABQAAAHgAQAAAADAjBmAQywIPAAACIAiVSUACCAAAlAgAIiIEIZMgIIDLAlZGEIQhglADIyYcYiMCOSAAAAAAAAACQAAAAAAAAAAAAAAAAAA==

> <PUBCHEM_IUPAC_OPENEYE_NAME>
4-ethyl-N-[4-(pyrrolidin-1-ium-1-ylmethyl)phenyl]benzamide

> <PUBCHEM_IUPAC_CAS_NAME>
4-ethyl-N-[4-(1-pyrrolidin-1-iumylmethyl)phenyl]benzamide

> <PUBCHEM_IUPAC_NAME>
4-ethyl-N-[4-(pyrrolidin-1-ium-1-ylmethyl)phenyl]benzamide

> <PUBCHEM_IUPAC_SYSTEMATIC_NAME>
4-ethyl-N-[4-(pyrrolidin-1-ium-1-ylmethyl)phenyl]benzamide

> <PUBCHEM_IUPAC_TRADITIONAL_NAME>
4-ethyl-N-[4-(pyrrolidin-1-ium-1-ylmethyl)phenyl]benzamide

> <PUBCHEM_IUPAC_INCHI>
InChI=1S/C20H24N2O/c1-2-16-5-9-18(10-6-16)20(23)21-19-11-7-17(8-12-19)15-22-13-3-4-14-22/h5-12H,2-4,13-15H2,1H3,(H,21,23)/p+1

> <PUBCHEM_IUPAC_INCHIKEY>
UMYVUTSKHQEZCX-UHFFFAOYSA-O

> <PUBCHEM_XLOGP3>
3.2

> <PUBCHEM_EXACT_MASS>
309.196688

> <PUBCHEM_MOLECULAR_FORMULA>
C20H25N2O+

> <PUBCHEM_MOLECULAR_WEIGHT>
309.4253

> <PUBCHEM_OPENEYE_CAN_SMILES>
CCC1=CC=C(C=C1)C(=O)NC2=CC=C(C=C2)C[NH+]3CCCC3

> <PUBCHEM_OPENEYE_ISO_SMILES>
CCC1=CC=C(C=C1)C(=O)NC2=CC=C(C=C2)C[NH+]3CCCC3

> <PUBCHEM_CACTVS_TPSA>
33.5

> <PUBCHEM_MONOISOTOPIC_WEIGHT>
309.196688

> <PUBCHEM_TOTAL_CHARGE>
1

> <PUBCHEM_HEAVY_ATOM_COUNT>
23

> <PUBCHEM_ATOM_DEF_STEREO_COUNT>
0

> <PUBCHEM_ATOM_UDEF_STEREO_COUNT>
0

> <PUBCHEM_BOND_DEF_STEREO_COUNT>
0

> <PUBCHEM_BOND_UDEF_STEREO_COUNT>
0

> <PUBCHEM_ISOTOPIC_ATOM_COUNT>
0

> <PUBCHEM_COMPONENT_COUNT>
1

> <PUBCHEM_CACTVS_TAUTO_COUNT>
5

> <PUBCHEM_COORDINATE_TYPE>
1
5
255

> <PUBCHEM_BONDANNOTATIONS>
10  12  8
11  13  8
12  14  8
13  14  8
16  18  8
16  19  8
17  21  8
17  22  8
18  21  8
19  22  8
9  10  8
9  11  8

$$$$
41790801
  -OEChem-11301217512D

 54 56  0     0  0  0  0  0  0999 V2000
    6.5981    0.1830    0.0000 O   0  0  0  0  0  0  0  0  0  0  0  0
    4.0000   -4.3170    0.0000 N   0  3  0  0  0  0  0  0  0  0  0  0
    4.8660    0.1830    0.0000 N   0  0  0  0  0  0  0  0  0  0  0  0
    3.5000   -3.4510    0.0000 C   0  0  0  0  0  0  0  0  0  0  0  0
    3.5000   -5.1830    0.0000 C   0  0  0  0  0  0  0  0  0  0  0  0
    2.5000   -5.1830    0.0000 C   0  0  0  0  0  0  0  0  0  0  0  0
    2.5000   -3.4510    0.0000 C   0  0  0  0  0  0  0  0  0  0  0  0
    2.0000   -4.3170    0.0000 C   0  0  0  0  0  0  0  0  0  0  0  0
    4.8660   -3.8170    0.0000 C   0  0  0  0  0  0  0  0  0  0  0  0
    4.8660   -2.8170    0.0000 C   0  0  0  0  0  0  0  0  0  0  0  0
    5.7320   -2.3170    0.0000 C   0  0  0  0  0  0  0  0  0  0  0  0
    4.0000   -2.3170    0.0000 C   0  0  0  0  0  0  0  0  0  0  0  0
    5.7320   -1.3170    0.0000 C   0  0  0  0  0  0  0  0  0  0  0  0
    4.0000   -1.3170    0.0000 C   0  0  0  0  0  0  0  0  0  0  0  0
    4.8660   -0.8170    0.0000 C   0  0  0  0  0  0  0  0  0  0  0  0
    5.7320    4.6830    0.0000 C   0  0  0  0  0  0  0  0  0  0  0  0
    5.7320    3.6830    0.0000 C   0  0  0  0  0  0  0  0  0  0  0  0
    5.7320    0.6830    0.0000 C   0  0  0  0  0  0  0  0  0  0  0  0
    5.7320    1.6830    0.0000 C   0  0  0  0  0  0  0  0  0  0  0  0
    4.8660    3.1830    0.0000 C   0  0  0  0  0  0  0  0  0  0  0  0
    6.5981    3.1830    0.0000 C   0  0  0  0  0  0  0  0  0  0  0  0
    6.5981    5.1830    0.0000 C   0  0  0  0  0  0  0  0  0  0  0  0
    4.8660    5.1830    0.0000 C   0  0  0  0  0  0  0  0  0  0  0  0
    4.8660    2.1830    0.0000 C   0  0  0  0  0  0  0  0  0  0  0  0
    6.5981    2.1830    0.0000 C   0  0  0  0  0  0  0  0  0  0  0  0
    4.8660   -4.8170    0.0000 H   0  0  0  0  0  0  0  0  0  0  0  0
    4.0826   -3.2389    0.0000 H   0  0  0  0  0  0  0  0  0  0  0  0
    3.3923   -2.8404    0.0000 H   0  0  0  0  0  0  0  0  0  0  0  0
    3.3923   -5.7936    0.0000 H   0  0  0  0  0  0  0  0  0  0  0  0
    4.0826   -5.3951    0.0000 H   0  0  0  0  0  0  0  0  0  0  0  0
    2.6077   -2.8404    0.0000 H   0  0  0  0  0  0  0  0  0  0  0  0
    1.9174   -3.2389    0.0000 H   0  0  0  0  0  0  0  0  0  0  0  0
    1.9174   -5.3951    0.0000 H   0  0  0  0  0  0  0  0  0  0  0  0
    2.6077   -5.7936    0.0000 H   0  0  0  0  0  0  0  0  0  0  0  0
    1.5250   -3.9185    0.0000 H   0  0  0  0  0  0  0  0  0  0  0  0
    1.5250   -4.7155    0.0000 H   0  0  0  0  0  0  0  0  0  0  0  0
    5.0781   -4.3996    0.0000 H   0  0  0  0  0  0  0  0  0  0  0  0
    5.4766   -3.7093    0.0000 H   0  0  0  0  0  0  0  0  0  0  0  0
    6.2690   -2.6270    0.0000 H   0  0  0  0  0  0  0  0  0  0  0  0
    3.4631   -2.6270    0.0000 H   0  0  0  0  0  0  0  0  0  0  0  0
    6.2690   -1.0070    0.0000 H   0  0  0  0  0  0  0  0  0  0  0  0
    3.4631   -1.0070    0.0000 H   0  0  0  0  0  0  0  0  0  0  0  0
    4.3291    0.4930    0.0000 H   0  0  0  0  0  0  0  0  0  0  0  0
    5.7320    5.3030    0.0000 H   0  0  0  0  0  0  0  0  0  0  0  0
    4.3291    3.4930    0.0000 H   0  0  0  0  0  0  0  0  0  0  0  0
    7.1350    3.4930    0.0000 H   0  0  0  0  0  0  0  0  0  0  0  0
    6.9081    4.6461    0.0000 H   0  0  0  0  0  0  0  0  0  0  0  0
    7.1350    5.4930    0.0000 H   0  0  0  0  0  0  0  0  0  0  0  0
    6.2881    5.7200    0.0000 H   0  0  0  0  0  0  0  0  0  0  0  0
    5.1760    5.7200    0.0000 H   0  0  0  0  0  0  0  0  0  0  0  0
    4.3291    5.4930    0.0000 H   0  0  0  0  0  0  0  0  0  0  0  0
    4.5560    4.6461    0.0000 H   0  0  0  0  0  0  0  0  0  0  0  0
    4.3291    1.8730    0.0000 H   0  0  0  0  0  0  0  0  0  0  0  0
    7.1350    1.8730    0.0000 H   0  0  0  0  0  0  0  0  0  0  0  0
  1 18  2  0  0  0  0
  2  4  1  0  0  0  0
  2  5  1  0  0  0  0
  2  9  1  0  0  0  0
  2 26  1  0  0  0  0
  3 15  1  0  0  0  0
  3 18  1  0  0  0  0
  3 43  1  0  0  0  0
  4  7  1  0  0  0  0
  4 27  1  0  0  0  0
  4 28  1  0  0  0  0
  5  6  1  0  0  0  0
  5 29  1  0  0  0  0
  5 30  1  0  0  0  0
  6  8  1  0  0  0  0
  6 33  1  0  0  0  0
  6 34  1  0  0  0  0
  7  8  1  0  0  0  0
  7 31  1  0  0  0  0
  7 32  1  0  0  0  0
  8 35  1  0  0  0  0
  8 36  1  0  0  0  0
  9 10  1  0  0  0  0
  9 37  1  0  0  0  0
  9 38  1  0  0  0  0
 10 11  2  0  0  0  0
 10 12  1  0  0  0  0
 11 13  1  0  0  0  0
 11 39  1  0  0  0  0
 12 14  2  0  0  0  0
 12 40  1  0  0  0  0
 13 15  2  0  0  0  0
 13 41  1  0  0  0  0
 14 15  1  0  0  0  0
 14 42  1  0  0  0  0
 16 17  1  0  0  0  0
 16 22  1  0  0  0  0
 16 23  1  0  0  0  0
 16 44  1  0  0  0  0
 17 20  2  0  0  0  0
 17 21  1  0  0  0  0
 18 19  1  0  0  0  0
 19 24  2  0  0  0  0
 19 25  1  0  0  0  0
 20 24  1  0  0  0  0
 20 45  1  0  0  0  0
 21 25  2  0  0  0  0
 21 46  1  0  0  0  0
 22 47  1  0  0  0  0
 22 48  1  0  0  0  0
 22 49  1  0  0  0  0
 23 50  1  0  0  0  0
 23 51  1  0  0  0  0
 23 52  1  0  0  0  0
 24 53  1  0  0  0  0
 25 54  1  0  0  0  0
M  CHG  1   2   1
M  END
> <PUBCHEM_COMPOUND_CID>
41790801

> <PUBCHEM_COMPOUND_CANONICALIZED>
1

> <PUBCHEM_CACTVS_COMPLEXITY>
400

> <PUBCHEM_CACTVS_HBOND_ACCEPTOR>
1

> <PUBCHEM_CACTVS_HBOND_DONOR>
2

> <PUBCHEM_CACTVS_ROTATABLE_BOND>
5

> <PUBCHEM_CACTVS_SUBSKEYS>
AAADceB7IAAAAAAAAAAAAAAAAAAAAAAAAAA8YIAAAAAAAAABQAAAHgAQAAAADQjBmAQywIPAAACIAiVSUACCAAAlAgAIiIEIZMgIIDLAlZGEIQhglADIyYcYiMCOyAAAAAAAAACQAAAAAAAAAAAAAAAAAA==

> <PUBCHEM_IUPAC_OPENEYE_NAME>
4-isopropyl-N-[4-(piperidin-1-ium-1-ylmethyl)phenyl]benzamide

> <PUBCHEM_IUPAC_CAS_NAME>
N-[4-(1-piperidin-1-iumylmethyl)phenyl]-4-propan-2-ylbenzamide

> <PUBCHEM_IUPAC_NAME>
N-[4-(piperidin-1-ium-1-ylmethyl)phenyl]-4-propan-2-ylbenzamide

> <PUBCHEM_IUPAC_SYSTEMATIC_NAME>
N-[4-(piperidin-1-ium-1-ylmethyl)phenyl]-4-propan-2-yl-benzamide

> <PUBCHEM_IUPAC_TRADITIONAL_NAME>
4-isopropyl-N-[4-(piperidin-1-ium-1-ylmethyl)phenyl]benzamide

> <PUBCHEM_IUPAC_INCHI>
InChI=1S/C22H28N2O/c1-17(2)19-8-10-20(11-9-19)22(25)23-21-12-6-18(7-13-21)16-24-14-4-3-5-15-24/h6-13,17H,3-5,14-16H2,1-2H3,(H,23,25)/p+1

> <PUBCHEM_IUPAC_INCHIKEY>
GVISGCHNSPPWHJ-UHFFFAOYSA-O

> <PUBCHEM_XLOGP3>
4.3

> <PUBCHEM_EXACT_MASS>
337.227989

> <PUBCHEM_MOLECULAR_FORMULA>
C22H29N2O+

> <PUBCHEM_MOLECULAR_WEIGHT>
337.47846

> <PUBCHEM_OPENEYE_CAN_SMILES>
CC(C)C1=CC=C(C=C1)C(=O)NC2=CC=C(C=C2)C[NH+]3CCCCC3

> <PUBCHEM_OPENEYE_ISO_SMILES>
CC(C)C1=CC=C(C=C1)C(=O)NC2=CC=C(C=C2)C[NH+]3CCCCC3

> <PUBCHEM_CACTVS_TPSA>
33.5

> <PUBCHEM_MONOISOTOPIC_WEIGHT>
337.227989

> <PUBCHEM_TOTAL_CHARGE>
1

> <PUBCHEM_HEAVY_ATOM_COUNT>
25

> <PUBCHEM_ATOM_DEF_STEREO_COUNT>
0

> <PUBCHEM_ATOM_UDEF_STEREO_COUNT>
0

> <PUBCHEM_BOND_DEF_STEREO_COUNT>
0

> <PUBCHEM_BOND_UDEF_STEREO_COUNT>
0

> <PUBCHEM_ISOTOPIC_ATOM_COUNT>
0

> <PUBCHEM_COMPONENT_COUNT>
1

> <PUBCHEM_CACTVS_TAUTO_COUNT>
5

> <PUBCHEM_COORDINATE_TYPE>
1
5
255

> <PUBCHEM_BONDANNOTATIONS>
10  11  8
10  12  8
11  13  8
12  14  8
13  15  8
14  15  8
17  20  8
17  21  8
19  24  8
19  25  8
20  24  8
21  25  8

$$$$
