25325687
  -OEChem-11301217372D

 38 39  0     0  0  0  0  0  0999 V2000
    5.1350   -0.1900    0.0000 S   0  0  0  0  0  0  0  0  0  0  0  0
    8.5991    2.8100    0.0000 S   0  0  0  0  0  0  0  0  0  0  0  0
    3.4030   -3.1900    0.0000 S   0  0  0  0  0  0  0  0  0  0  0  0
    9.4651    4.3100    0.0000 F   0  0  0  0  0  0  0  0  0  0  0  0
   10.3312    2.8100    0.0000 F   0  0  0  0  0  0  0  0  0  0  0  0
    6.1350   -0.1900    0.0000 O   0  0  0  0  0  0  0  0  0  0  0  0
    4.1350   -0.1900    0.0000 O   0  0  0  0  0  0  0  0  0  0  0  0
    8.0991    3.6760    0.0000 O   0  0  0  0  0  0  0  0  0  0  0  0
    9.0991    1.9440    0.0000 O   0  0  0  0  0  0  0  0  0  0  0  0
    3.9030   -4.0560    0.0000 O   0  0  0  0  0  0  0  0  0  0  0  0
    2.9030   -2.3240    0.0000 O   0  0  0  0  0  0  0  0  0  0  0  0
    5.1350    0.8100    0.0000 N   0  0  0  0  0  0  0  0  0  0  0  0
    2.5369   -3.6900    0.0000 N   0  0  0  0  0  0  0  0  0  0  0  0
    5.1350   -1.1900    0.0000 C   0  0  0  0  0  0  0  0  0  0  0  0
    6.0010    1.3100    0.0000 C   0  0  0  0  0  0  0  0  0  0  0  0
    7.7331    2.3100    0.0000 C   0  0  0  0  0  0  0  0  0  0  0  0
    4.2690   -2.6900    0.0000 C   0  0  0  0  0  0  0  0  0  0  0  0
    4.2690   -1.6900    0.0000 C   0  0  0  0  0  0  0  0  0  0  0  0
    6.0010   -1.6900    0.0000 C   0  0  0  0  0  0  0  0  0  0  0  0
    6.8671    0.8100    0.0000 C   0  0  0  0  0  0  0  0  0  0  0  0
    6.0010    2.3100    0.0000 C   0  0  0  0  0  0  0  0  0  0  0  0
    7.7331    1.3100    0.0000 C   0  0  0  0  0  0  0  0  0  0  0  0
    6.8671    2.8100    0.0000 C   0  0  0  0  0  0  0  0  0  0  0  0
    5.1350   -3.1900    0.0000 C   0  0  0  0  0  0  0  0  0  0  0  0
    6.0010   -2.6900    0.0000 C   0  0  0  0  0  0  0  0  0  0  0  0
    9.4651    3.3100    0.0000 C   0  0  0  0  0  0  0  0  0  0  0  0
    4.5981    1.1200    0.0000 H   0  0  0  0  0  0  0  0  0  0  0  0
    3.7320   -1.3800    0.0000 H   0  0  0  0  0  0  0  0  0  0  0  0
    6.5380   -1.3800    0.0000 H   0  0  0  0  0  0  0  0  0  0  0  0
    6.8671    0.1900    0.0000 H   0  0  0  0  0  0  0  0  0  0  0  0
    5.4641    2.6200    0.0000 H   0  0  0  0  0  0  0  0  0  0  0  0
    8.2700    1.0000    0.0000 H   0  0  0  0  0  0  0  0  0  0  0  0
    6.8671    3.4300    0.0000 H   0  0  0  0  0  0  0  0  0  0  0  0
    5.1350   -3.8100    0.0000 H   0  0  0  0  0  0  0  0  0  0  0  0
    6.5380   -3.0000    0.0000 H   0  0  0  0  0  0  0  0  0  0  0  0
   10.0021    3.6200    0.0000 H   0  0  0  0  0  0  0  0  0  0  0  0
    2.5369   -4.3100    0.0000 H   0  0  0  0  0  0  0  0  0  0  0  0
    2.0000   -3.3800    0.0000 H   0  0  0  0  0  0  0  0  0  0  0  0
  1  6  2  0  0  0  0
  1  7  2  0  0  0  0
  1 12  1  0  0  0  0
  1 14  1  0  0  0  0
  2  8  2  0  0  0  0
  2  9  2  0  0  0  0
  2 16  1  0  0  0  0
  2 26  1  0  0  0  0
  3 10  2  0  0  0  0
  3 11  2  0  0  0  0
  3 13  1  0  0  0  0
  3 17  1  0  0  0  0
  4 26  1  0  0  0  0
  5 26  1  0  0  0  0
 12 15  1  0  0  0  0
 12 27  1  0  0  0  0
 13 37  1  0  0  0  0
 13 38  1  0  0  0  0
 14 18  1  0  0  0  0
 14 19  2  0  0  0  0
 15 20  2  0  0  0  0
 15 21  1  0  0  0  0
 16 22  2  0  0  0  0
 16 23  1  0  0  0  0
 17 18  2  0  0  0  0
 17 24  1  0  0  0  0
 18 28  1  0  0  0  0
 19 25  1  0  0  0  0
 19 29  1  0  0  0  0
 20 22  1  0  0  0  0
 20 30  1  0  0  0  0
 21 23  2  0  0  0  0
 21 31  1  0  0  0  0
 22 32  1  0  0  0  0
 23 33  1  0  0  0  0
 24 25  2  0  0  0  0
 24 34  1  0  0  0  0
 25 35  1  0  0  0  0
 26 36  1  0  0  0  0
M  END
> <PUBCHEM_COMPOUND_CID>
25325687

> <PUBCHEM_COMPOUND_CANONICALIZED>
1

> <PUBCHEM_CACTVS_COMPLEXITY>
788

> <PUBCHEM_CACTVS_HBOND_ACCEPTOR>
10

> <PUBCHEM_CACTVS_HBOND_DONOR>
2

> <PUBCHEM_CACTVS_ROTATABLE_BOND>
6

> <PUBCHEM_CACTVS_SUBSKEYS>
AAADccBzOYBgAAAAAAAAAAAAAAAAAAAAAAAwYAAAAAAAAAABQAAAHQQQQAAACAiBUBCwwYBAAAqAACRCQHDCABAgChAIiBgAZIgIICKgkZGAIABgkAAIyAcQAAAAAAQAAEAAAAAACAAAgAAAAAAAAAAAAA==

> <PUBCHEM_IUPAC_OPENEYE_NAME>
N3-[4-(difluoromethylsulfonyl)phenyl]benzene-1,3-disulfonamide

> <PUBCHEM_IUPAC_CAS_NAME>
N3-[4-(difluoromethylsulfonyl)phenyl]benzene-1,3-disulfonamide

> <PUBCHEM_IUPAC_NAME>
3-N-[4-(difluoromethylsulfonyl)phenyl]benzene-1,3-disulfonamide

> <PUBCHEM_IUPAC_SYSTEMATIC_NAME>
N3-[4-[bis(fluoranyl)methylsulfonyl]phenyl]benzene-1,3-disulfonamide

> <PUBCHEM_IUPAC_TRADITIONAL_NAME>
N'-[4-(difluoromethylsulfonyl)phenyl]benzene-1,3-disulfonamide

> <PUBCHEM_IUPAC_INCHI>
InChI=1S/C13H12F2N2O6S3/c14-13(15)24(18,19)10-6-4-9(5-7-10)17-26(22,23)12-3-1-2-11(8-12)25(16,20)21/h1-8,13,17H,(H2,16,20,21)

> <PUBCHEM_IUPAC_INCHIKEY>
GKFZJGUUDJJGOK-UHFFFAOYSA-N

> <PUBCHEM_XLOGP3>
1

> <PUBCHEM_EXACT_MASS>
425.982556

> <PUBCHEM_MOLECULAR_FORMULA>
C13H12F2N2O6S3

> <PUBCHEM_MOLECULAR_WEIGHT>
426.435986

> <PUBCHEM_OPENEYE_CAN_SMILES>
C1=CC(=CC(=C1)S(=O)(=O)NC2=CC=C(C=C2)S(=O)(=O)C(F)F)S(=O)(=O)N

> <PUBCHEM_OPENEYE_ISO_SMILES>
C1=CC(=CC(=C1)S(=O)(=O)NC2=CC=C(C=C2)S(=O)(=O)C(F)F)S(=O)(=O)N

> <PUBCHEM_CACTVS_TPSA>
166

> <PUBCHEM_MONOISOTOPIC_WEIGHT>
425.982556

> <PUBCHEM_TOTAL_CHARGE>
0

> <PUBCHEM_HEAVY_ATOM_COUNT>
26

> <PUBCHEM_ATOM_DEF_STEREO_COUNT>
0

> <PUBCHEM_ATOM_UDEF_STEREO_COUNT>
0

> <PUBCHEM_BOND_DEF_STEREO_COUNT>
0

> <PUBCHEM_BOND_UDEF_STEREO_COUNT>
0

> <PUBCHEM_ISOTOPIC_ATOM_COUNT>
0

> <PUBCHEM_COMPONENT_COUNT>
1

> <PUBCHEM_CACTVS_TAUTO_COUNT>
1

> <PUBCHEM_COORDINATE_TYPE>
1
5
255

> <PUBCHEM_BONDANNOTATIONS>
14  18  8
14  19  8
15  20  8
15  21  8
16  22  8
16  23  8
17  18  8
17  24  8
19  25  8
20  22  8
21  23  8
24  25  8

$$$$
25335449
  -OEChem-11301217382D

 34 35  0     0  0  0  0  0  0999 V2000
    6.3301   -0.5000    0.0000 S   0  0  0  0  0  0  0  0  0  0  0  0
    4.5981    4.5000    0.0000 F   0  0  0  0  0  0  0  0  0  0  0  0
    5.5981    3.5000    0.0000 F   0  0  0  0  0  0  0  0  0  0  0  0
    3.5981    3.5000    0.0000 F   0  0  0  0  0  0  0  0  0  0  0  0
    7.3301   -0.5000    0.0000 O   0  0  0  0  0  0  0  0  0  0  0  0
    5.3301   -0.5000    0.0000 O   0  0  0  0  0  0  0  0  0  0  0  0
    2.0000    2.0000    0.0000 O   0  5  0  0  0  0  0  0  0  0  0  0
    2.8660    3.5000    0.0000 O   0  0  0  0  0  0  0  0  0  0  0  0
    4.5981   -4.5000    0.0000 O   0  5  0  0  0  0  0  0  0  0  0  0
    3.7320   -3.0000    0.0000 O   0  0  0  0  0  0  0  0  0  0  0  0
    6.3301    0.5000    0.0000 N   0  0  0  0  0  0  0  0  0  0  0  0
    2.8660    2.5000    0.0000 N   0  3  0  0  0  0  0  0  0  0  0  0
    5.4641    1.0000    0.0000 C   0  0  0  0  0  0  0  0  0  0  0  0
    6.3301   -1.5000    0.0000 C   0  0  0  0  0  0  0  0  0  0  0  0
    4.5981    2.5000    0.0000 C   0  0  0  0  0  0  0  0  0  0  0  0
    5.4641    2.0000    0.0000 C   0  0  0  0  0  0  0  0  0  0  0  0
    3.7320    2.0000    0.0000 C   0  0  0  0  0  0  0  0  0  0  0  0
    4.5981    0.5000    0.0000 C   0  0  0  0  0  0  0  0  0  0  0  0
    3.7320    1.0000    0.0000 C   0  0  0  0  0  0  0  0  0  0  0  0
    5.4641   -2.0000    0.0000 C   0  0  0  0  0  0  0  0  0  0  0  0
    7.1962   -2.0000    0.0000 C   0  0  0  0  0  0  0  0  0  0  0  0
    4.5981    3.5000    0.0000 C   0  0  0  0  0  0  0  0  0  0  0  0
    5.4641   -3.0000    0.0000 C   0  0  0  0  0  0  0  0  0  0  0  0
    7.1962   -3.0000    0.0000 C   0  0  0  0  0  0  0  0  0  0  0  0
    6.3301   -3.5000    0.0000 C   0  0  0  0  0  0  0  0  0  0  0  0
    4.5981   -3.5000    0.0000 C   0  0  0  0  0  0  0  0  0  0  0  0
    6.8671    0.8100    0.0000 H   0  0  0  0  0  0  0  0  0  0  0  0
    6.0010    2.3100    0.0000 H   0  0  0  0  0  0  0  0  0  0  0  0
    4.5981   -0.1200    0.0000 H   0  0  0  0  0  0  0  0  0  0  0  0
    3.1951    0.6900    0.0000 H   0  0  0  0  0  0  0  0  0  0  0  0
    4.9272   -1.6900    0.0000 H   0  0  0  0  0  0  0  0  0  0  0  0
    7.7331   -1.6900    0.0000 H   0  0  0  0  0  0  0  0  0  0  0  0
    7.7331   -3.3100    0.0000 H   0  0  0  0  0  0  0  0  0  0  0  0
    6.3301   -4.1200    0.0000 H   0  0  0  0  0  0  0  0  0  0  0  0
  1  5  2  0  0  0  0
  1  6  2  0  0  0  0
  1 11  1  0  0  0  0
  1 14  1  0  0  0  0
  2 22  1  0  0  0  0
  3 22  1  0  0  0  0
  4 22  1  0  0  0  0
  7 12  1  0  0  0  0
  8 12  2  0  0  0  0
  9 26  1  0  0  0  0
 10 26  2  0  0  0  0
 11 13  1  0  0  0  0
 11 27  1  0  0  0  0
 12 17  1  0  0  0  0
 13 16  2  0  0  0  0
 13 18  1  0  0  0  0
 14 20  1  0  0  0  0
 14 21  2  0  0  0  0
 15 16  1  0  0  0  0
 15 17  2  0  0  0  0
 15 22  1  0  0  0  0
 16 28  1  0  0  0  0
 17 19  1  0  0  0  0
 18 19  2  0  0  0  0
 18 29  1  0  0  0  0
 19 30  1  0  0  0  0
 20 23  2  0  0  0  0
 20 31  1  0  0  0  0
 21 24  1  0  0  0  0
 21 32  1  0  0  0  0
 23 25  1  0  0  0  0
 23 26  1  0  0  0  0
 24 25  2  0  0  0  0
 24 33  1  0  0  0  0
 25 34  1  0  0  0  0
M  CHG  3   7  -1   9  -1  12   1
M  END
> <PUBCHEM_COMPOUND_CID>
25335449

> <PUBCHEM_COMPOUND_CANONICALIZED>
1

> <PUBCHEM_CACTVS_COMPLEXITY>
637

> <PUBCHEM_CACTVS_HBOND_ACCEPTOR>
10

> <PUBCHEM_CACTVS_HBOND_DONOR>
1

> <PUBCHEM_CACTVS_ROTATABLE_BOND>
3

> <PUBCHEM_CACTVS_SUBSKEYS>
AAADccBzOYBAAAAAAAAAAAAAAAAAAAAAAAAwYAAAAAAAAAABQAAAHwQUQAAADAiB2BAwyYBQQAKJAiTSS3DCABAkAgAoiBkAbMoIJjKAlZGAMQBk0AEIyYeYyCCOAACAwAACAAAAAQGAAAQAAAAAAAAAAA==

> <PUBCHEM_IUPAC_OPENEYE_NAME>
3-[[4-nitro-3-(trifluoromethyl)phenyl]sulfamoyl]benzoate

> <PUBCHEM_IUPAC_CAS_NAME>
3-[[4-nitro-3-(trifluoromethyl)phenyl]sulfamoyl]benzoate

> <PUBCHEM_IUPAC_NAME>
3-[[4-nitro-3-(trifluoromethyl)phenyl]sulfamoyl]benzoate

> <PUBCHEM_IUPAC_SYSTEMATIC_NAME>
3-[[4-nitro-3-(trifluoromethyl)phenyl]sulfamoyl]benzoate

> <PUBCHEM_IUPAC_TRADITIONAL_NAME>
3-[[4-nitro-3-(trifluoromethyl)phenyl]sulfamoyl]benzoate

> <PUBCHEM_IUPAC_INCHI>
InChI=1S/C14H9F3N2O6S/c15-14(16,17)11-7-9(4-5-12(11)19(22)23)18-26(24,25)10-3-1-2-8(6-10)13(20)21/h1-7,18H,(H,20,21)/p-1

> <PUBCHEM_IUPAC_INCHIKEY>
IMYLWRABRTWCNI-UHFFFAOYSA-M

> <PUBCHEM_XLOGP3>
3.9

> <PUBCHEM_EXACT_MASS>
389.005517

> <PUBCHEM_MOLECULAR_FORMULA>
C14H8F3N2O6S-

> <PUBCHEM_MOLECULAR_WEIGHT>
389.28333

> <PUBCHEM_OPENEYE_CAN_SMILES>
C1=CC(=CC(=C1)S(=O)(=O)NC2=CC(=C(C=C2)[N+](=O)[O-])C(F)(F)F)C(=O)[O-]

> <PUBCHEM_OPENEYE_ISO_SMILES>
C1=CC(=CC(=C1)S(=O)(=O)NC2=CC(=C(C=C2)[N+](=O)[O-])C(F)(F)F)C(=O)[O-]

> <PUBCHEM_CACTVS_TPSA>
141

> <PUBCHEM_MONOISOTOPIC_WEIGHT>
389.005517

> <PUBCHEM_TOTAL_CHARGE>
-1

> <PUBCHEM_HEAVY_ATOM_COUNT>
26

> <PUBCHEM_ATOM_DEF_STEREO_COUNT>
0

> <PUBCHEM_ATOM_UDEF_STEREO_COUNT>
0

> <PUBCHEM_BOND_DEF_STEREO_COUNT>
0

> <PUBCHEM_BOND_UDEF_STEREO_COUNT>
0

> <PUBCHEM_ISOTOPIC_ATOM_COUNT>
0

> <PUBCHEM_COMPONENT_COUNT>
1

> <PUBCHEM_CACTVS_TAUTO_COUNT>
1

> <PUBCHEM_COORDINATE_TYPE>
1
5
255

> <PUBCHEM_BONDANNOTATIONS>
13  16  8
13  18  8
14  20  8
14  21  8
15  16  8
15  17  8
17  19  8
18  19  8
20  23  8
21  24  8
23  25  8
24  25  8

$$$$
25344355
  -OEChem-11301217382D

 32 33  0     0  0  0  0  0  0999 V2000
    4.3211    1.3428    0.0000 O   0  0  0  0  0  0  0  0  0  0  0  0
    4.6783   -1.9615    0.0000 N   0  0  0  0  0  0  0  0  0  0  0  0
    5.9674    0.8047    0.0000 N   0  0  0  0  0  0  0  0  0  0  0  0
    3.7320   -0.6567    0.0000 C   0  0  0  0  0  0  0  0  0  0  0  0
    3.7320   -1.6567    0.0000 C   0  0  0  0  0  0  0  0  0  0  0  0
    4.6783   -0.3520    0.0000 C   0  0  0  0  0  0  0  0  0  0  0  0
    5.2619   -1.1567    0.0000 C   0  0  0  0  0  0  0  0  0  0  0  0
    4.9889    0.5985    0.0000 C   0  0  0  0  0  0  0  0  0  0  0  0
    2.8660   -0.1567    0.0000 C   0  0  0  0  0  0  0  0  0  0  0  0
    2.8660   -2.1567    0.0000 C   0  0  0  0  0  0  0  0  0  0  0  0
    6.2781    1.7552    0.0000 C   0  0  0  0  0  0  0  0  0  0  0  0
    4.9889   -2.9120    0.0000 C   0  0  0  0  0  0  0  0  0  0  0  0
    7.2566    1.9615    0.0000 C   0  0  0  0  0  0  0  0  0  0  0  0
    2.0000   -0.6567    0.0000 C   0  0  0  0  0  0  0  0  0  0  0  0
    2.0000   -1.6567    0.0000 C   0  0  0  0  0  0  0  0  0  0  0  0
    7.5673    2.9120    0.0000 C   0  0  0  0  0  0  0  0  0  0  0  0
    5.8819   -1.1567    0.0000 H   0  0  0  0  0  0  0  0  0  0  0  0
    2.8660    0.4633    0.0000 H   0  0  0  0  0  0  0  0  0  0  0  0
    2.8660   -2.7767    0.0000 H   0  0  0  0  0  0  0  0  0  0  0  0
    6.2575    2.3749    0.0000 H   0  0  0  0  0  0  0  0  0  0  0  0
    5.6643    1.8426    0.0000 H   0  0  0  0  0  0  0  0  0  0  0  0
    6.3815    0.3433    0.0000 H   0  0  0  0  0  0  0  0  0  0  0  0
    4.3996   -3.1046    0.0000 H   0  0  0  0  0  0  0  0  0  0  0  0
    5.1815   -3.5013    0.0000 H   0  0  0  0  0  0  0  0  0  0  0  0
    5.5783   -2.7194    0.0000 H   0  0  0  0  0  0  0  0  0  0  0  0
    7.2772    1.3418    0.0000 H   0  0  0  0  0  0  0  0  0  0  0  0
    7.8704    1.8741    0.0000 H   0  0  0  0  0  0  0  0  0  0  0  0
    1.4631   -0.3467    0.0000 H   0  0  0  0  0  0  0  0  0  0  0  0
    1.4631   -1.9667    0.0000 H   0  0  0  0  0  0  0  0  0  0  0  0
    8.1566    2.7194    0.0000 H   0  0  0  0  0  0  0  0  0  0  0  0
    7.7599    3.5013    0.0000 H   0  0  0  0  0  0  0  0  0  0  0  0
    6.9780    3.1046    0.0000 H   0  0  0  0  0  0  0  0  0  0  0  0
  1  8  2  0  0  0  0
  2  5  1  0  0  0  0
  2  7  1  0  0  0  0
  2 12  1  0  0  0  0
  3  8  1  0  0  0  0
  3 11  1  0  0  0  0
  3 22  1  0  0  0  0
  4  5  1  0  0  0  0
  4  6  1  0  0  0  0
  4  9  2  0  0  0  0
  5 10  2  0  0  0  0
  6  7  2  0  0  0  0
  6  8  1  0  0  0  0
  7 17  1  0  0  0  0
  9 14  1  0  0  0  0
  9 18  1  0  0  0  0
 10 15  1  0  0  0  0
 10 19  1  0  0  0  0
 11 13  1  0  0  0  0
 11 20  1  0  0  0  0
 11 21  1  0  0  0  0
 12 23  1  0  0  0  0
 12 24  1  0  0  0  0
 12 25  1  0  0  0  0
 13 16  1  0  0  0  0
 13 26  1  0  0  0  0
 13 27  1  0  0  0  0
 14 15  2  0  0  0  0
 14 28  1  0  0  0  0
 15 29  1  0  0  0  0
 16 30  1  0  0  0  0
 16 31  1  0  0  0  0
 16 32  1  0  0  0  0
M  END
> <PUBCHEM_COMPOUND_CID>
25344355

> <PUBCHEM_COMPOUND_CANONICALIZED>
1

> <PUBCHEM_CACTVS_COMPLEXITY>
254

> <PUBCHEM_CACTVS_HBOND_ACCEPTOR>
1

> <PUBCHEM_CACTVS_HBOND_DONOR>
1

> <PUBCHEM_CACTVS_ROTATABLE_BOND>
3

> <PUBCHEM_CACTVS_SUBSKEYS>
AAADceBzIAAAAAAAAAAAAAAAAAAAAWAAAAAwAAAAAAAAAFgB8AAAHgAQAAAADAjBngQ+wPPMEACoAzV3VACCgCA1AiAI2KE4ZNgIIPrA1ZGEIYhglgDIyccciMCOgAAAAAACAAAAAAAAAAQAAAAAAAAAAA==

> <PUBCHEM_IUPAC_OPENEYE_NAME>
1-methyl-N-propyl-indole-3-carboxamide

> <PUBCHEM_IUPAC_CAS_NAME>
1-methyl-N-propyl-3-indolecarboxamide

> <PUBCHEM_IUPAC_NAME>
1-methyl-N-propylindole-3-carboxamide

> <PUBCHEM_IUPAC_SYSTEMATIC_NAME>
1-methyl-N-propyl-indole-3-carboxamide

> <PUBCHEM_IUPAC_TRADITIONAL_NAME>
1-methyl-N-propyl-indole-3-carboxamide

> <PUBCHEM_IUPAC_INCHI>
InChI=1S/C13H16N2O/c1-3-8-14-13(16)11-9-15(2)12-7-5-4-6-10(11)12/h4-7,9H,3,8H2,1-2H3,(H,14,16)

> <PUBCHEM_IUPAC_INCHIKEY>
MIUCRCUULCQDEK-UHFFFAOYSA-N

> <PUBCHEM_XLOGP3>
2.4

> <PUBCHEM_EXACT_MASS>
216.126263

> <PUBCHEM_MOLECULAR_FORMULA>
C13H16N2O

> <PUBCHEM_MOLECULAR_WEIGHT>
216.27894

> <PUBCHEM_OPENEYE_CAN_SMILES>
CCCNC(=O)C1=CN(C2=CC=CC=C21)C

> <PUBCHEM_OPENEYE_ISO_SMILES>
CCCNC(=O)C1=CN(C2=CC=CC=C21)C

> <PUBCHEM_CACTVS_TPSA>
34

> <PUBCHEM_MONOISOTOPIC_WEIGHT>
216.126263

> <PUBCHEM_TOTAL_CHARGE>
0

> <PUBCHEM_HEAVY_ATOM_COUNT>
16

> <PUBCHEM_ATOM_DEF_STEREO_COUNT>
0

> <PUBCHEM_ATOM_UDEF_STEREO_COUNT>
0

> <PUBCHEM_BOND_DEF_STEREO_COUNT>
0

> <PUBCHEM_BOND_UDEF_STEREO_COUNT>
0

> <PUBCHEM_ISOTOPIC_ATOM_COUNT>
0

> <PUBCHEM_COMPONENT_COUNT>
1

> <PUBCHEM_CACTVS_TAUTO_COUNT>
2

> <PUBCHEM_COORDINATE_TYPE>
1
5
255

> <PUBCHEM_BONDANNOTATIONS>
10  15  8
14  15  8
2  5  8
2  7  8
4  5  8
4  6  8
4  9  8
5  10  8
6  7  8
9  14  8

$$$$
25348690
  -OEChem-11301217382D

 29 30  0     0  0  0  0  0  0999 V2000
    4.3211    1.8181    0.0000 O   0  0  0  0  0  0  0  0  0  0  0  0
    4.6783   -1.4862    0.0000 N   0  0  0  0  0  0  0  0  0  0  0  0
    5.9674    1.2800    0.0000 N   0  0  0  0  0  0  0  0  0  0  0  0
    3.7320   -0.1815    0.0000 C   0  0  0  0  0  0  0  0  0  0  0  0
    3.7320   -1.1815    0.0000 C   0  0  0  0  0  0  0  0  0  0  0  0
    4.6783    0.1233    0.0000 C   0  0  0  0  0  0  0  0  0  0  0  0
    5.2619   -0.6815    0.0000 C   0  0  0  0  0  0  0  0  0  0  0  0
    2.8660    0.3185    0.0000 C   0  0  0  0  0  0  0  0  0  0  0  0
    2.8660   -1.6815    0.0000 C   0  0  0  0  0  0  0  0  0  0  0  0
    4.9889    1.0738    0.0000 C   0  0  0  0  0  0  0  0  0  0  0  0
    4.9889   -2.4367    0.0000 C   0  0  0  0  0  0  0  0  0  0  0  0
    2.0000   -0.1815    0.0000 C   0  0  0  0  0  0  0  0  0  0  0  0
    2.0000   -1.1815    0.0000 C   0  0  0  0  0  0  0  0  0  0  0  0
    6.2781    2.2305    0.0000 C   0  0  0  0  0  0  0  0  0  0  0  0
    7.2566    2.4367    0.0000 C   0  0  0  0  0  0  0  0  0  0  0  0
    5.8819   -0.6815    0.0000 H   0  0  0  0  0  0  0  0  0  0  0  0
    2.8660    0.9385    0.0000 H   0  0  0  0  0  0  0  0  0  0  0  0
    2.8660   -2.3015    0.0000 H   0  0  0  0  0  0  0  0  0  0  0  0
    4.3996   -2.6293    0.0000 H   0  0  0  0  0  0  0  0  0  0  0  0
    5.1815   -3.0260    0.0000 H   0  0  0  0  0  0  0  0  0  0  0  0
    5.5783   -2.2441    0.0000 H   0  0  0  0  0  0  0  0  0  0  0  0
    1.4631    0.1285    0.0000 H   0  0  0  0  0  0  0  0  0  0  0  0
    1.4631   -1.4915    0.0000 H   0  0  0  0  0  0  0  0  0  0  0  0
    6.3815    0.8185    0.0000 H   0  0  0  0  0  0  0  0  0  0  0  0
    6.2575    2.8502    0.0000 H   0  0  0  0  0  0  0  0  0  0  0  0
    5.6643    2.3179    0.0000 H   0  0  0  0  0  0  0  0  0  0  0  0
    7.3845    1.8301    0.0000 H   0  0  0  0  0  0  0  0  0  0  0  0
    7.8633    2.5646    0.0000 H   0  0  0  0  0  0  0  0  0  0  0  0
    7.1288    3.0434    0.0000 H   0  0  0  0  0  0  0  0  0  0  0  0
  1 10  2  0  0  0  0
  2  5  1  0  0  0  0
  2  7  1  0  0  0  0
  2 11  1  0  0  0  0
  3 10  1  0  0  0  0
  3 14  1  0  0  0  0
  3 24  1  0  0  0  0
  4  5  1  0  0  0  0
  4  6  1  0  0  0  0
  4  8  2  0  0  0  0
  5  9  2  0  0  0  0
  6  7  2  0  0  0  0
  6 10  1  0  0  0  0
  7 16  1  0  0  0  0
  8 12  1  0  0  0  0
  8 17  1  0  0  0  0
  9 13  1  0  0  0  0
  9 18  1  0  0  0  0
 11 19  1  0  0  0  0
 11 20  1  0  0  0  0
 11 21  1  0  0  0  0
 12 13  2  0  0  0  0
 12 22  1  0  0  0  0
 13 23  1  0  0  0  0
 14 15  1  0  0  0  0
 14 25  1  0  0  0  0
 14 26  1  0  0  0  0
 15 27  1  0  0  0  0
 15 28  1  0  0  0  0
 15 29  1  0  0  0  0
M  END
> <PUBCHEM_COMPOUND_CID>
25348690

> <PUBCHEM_COMPOUND_CANONICALIZED>
1

> <PUBCHEM_CACTVS_COMPLEXITY>
242

> <PUBCHEM_CACTVS_HBOND_ACCEPTOR>
1

> <PUBCHEM_CACTVS_HBOND_DONOR>
1

> <PUBCHEM_CACTVS_ROTATABLE_BOND>
2

> <PUBCHEM_CACTVS_SUBSKEYS>
AAADccBzIAAAAAAAAAAAAAAAAAAAAWAAAAAwAAAAAAAAAFgB8AAAHgAQAAAADAjBngQ+wPPMEACoAzV3VACCgCA1AiAI2KE4ZNgIIPrA1ZGEIYhglgDIyccciMCOgAAAAAACAAAAAAAAAAQAAAAAAAAAAA==

> <PUBCHEM_IUPAC_OPENEYE_NAME>
N-ethyl-1-methyl-indole-3-carboxamide

> <PUBCHEM_IUPAC_CAS_NAME>
N-ethyl-1-methyl-3-indolecarboxamide

> <PUBCHEM_IUPAC_NAME>
N-ethyl-1-methylindole-3-carboxamide

> <PUBCHEM_IUPAC_SYSTEMATIC_NAME>
N-ethyl-1-methyl-indole-3-carboxamide

> <PUBCHEM_IUPAC_TRADITIONAL_NAME>
N-ethyl-1-methyl-indole-3-carboxamide

> <PUBCHEM_IUPAC_INCHI>
InChI=1S/C12H14N2O/c1-3-13-12(15)10-8-14(2)11-7-5-4-6-9(10)11/h4-8H,3H2,1-2H3,(H,13,15)

> <PUBCHEM_IUPAC_INCHIKEY>
JBZKPXZYJHUZCI-UHFFFAOYSA-N

> <PUBCHEM_XLOGP3>
1.9

> <PUBCHEM_EXACT_MASS>
202.110613

> <PUBCHEM_MOLECULAR_FORMULA>
C12H14N2O

> <PUBCHEM_MOLECULAR_WEIGHT>
202.25236

> <PUBCHEM_OPENEYE_CAN_SMILES>
CCNC(=O)C1=CN(C2=CC=CC=C21)C

> <PUBCHEM_OPENEYE_ISO_SMILES>
CCNC(=O)C1=CN(C2=CC=CC=C21)C

> <PUBCHEM_CACTVS_TPSA>
34

> <PUBCHEM_MONOISOTOPIC_WEIGHT>
202.110613

> <PUBCHEM_TOTAL_CHARGE>
0

> <PUBCHEM_HEAVY_ATOM_COUNT>
15

> <PUBCHEM_ATOM_DEF_STEREO_COUNT>
0

> <PUBCHEM_ATOM_UDEF_STEREO_COUNT>
0

> <PUBCHEM_BOND_DEF_STEREO_COUNT>
0

> <PUBCHEM_BOND_UDEF_STEREO_COUNT>
0

> <PUBCHEM_ISOTOPIC_ATOM_COUNT>
0

> <PUBCHEM_COMPONENT_COUNT>
1

> <PUBCHEM_CACTVS_TAUTO_COUNT>
2

> <PUBCHEM_COORDINATE_TYPE>
1
5
255

> <PUBCHEM_BONDANNOTATIONS>
12  13  8
2  5  8
2  7  8
4  5  8
4  6  8
4  8  8
5  9  8
6  7  8
8  12  8
9  13  8

$$$$
25348835
  -OEChem-11301217382D

 29 30  0     0  0  0  0  0  0999 V2000
    4.3211    1.9212    0.0000 O   0  0  0  0  0  0  0  0  0  0  0  0
    4.6783   -1.3831    0.0000 N   0  0  0  0  0  0  0  0  0  0  0  0
    5.9674    1.3831    0.0000 N   0  0  0  0  0  0  0  0  0  0  0  0
    3.7320   -0.0784    0.0000 C   0  0  0  0  0  0  0  0  0  0  0  0
    3.7320   -1.0784    0.0000 C   0  0  0  0  0  0  0  0  0  0  0  0
    4.6783    0.2264    0.0000 C   0  0  0  0  0  0  0  0  0  0  0  0
    5.2619   -0.5784    0.0000 C   0  0  0  0  0  0  0  0  0  0  0  0
    4.9889    1.1769    0.0000 C   0  0  0  0  0  0  0  0  0  0  0  0
    2.8660    0.4216    0.0000 C   0  0  0  0  0  0  0  0  0  0  0  0
    2.8660   -1.5784    0.0000 C   0  0  0  0  0  0  0  0  0  0  0  0
    4.9889   -2.3336    0.0000 C   0  0  0  0  0  0  0  0  0  0  0  0
    2.0000   -0.0784    0.0000 C   0  0  0  0  0  0  0  0  0  0  0  0
    2.0000   -1.0784    0.0000 C   0  0  0  0  0  0  0  0  0  0  0  0
    6.2781    2.3336    0.0000 C   0  0  0  0  0  0  0  0  0  0  0  0
    6.6353    0.6388    0.0000 C   0  0  0  0  0  0  0  0  0  0  0  0
    5.8819   -0.5784    0.0000 H   0  0  0  0  0  0  0  0  0  0  0  0
    2.8660    1.0416    0.0000 H   0  0  0  0  0  0  0  0  0  0  0  0
    2.8660   -2.1984    0.0000 H   0  0  0  0  0  0  0  0  0  0  0  0
    4.3996   -2.5262    0.0000 H   0  0  0  0  0  0  0  0  0  0  0  0
    5.1815   -2.9229    0.0000 H   0  0  0  0  0  0  0  0  0  0  0  0
    5.5783   -2.1410    0.0000 H   0  0  0  0  0  0  0  0  0  0  0  0
    1.4631    0.2316    0.0000 H   0  0  0  0  0  0  0  0  0  0  0  0
    1.4631   -1.3884    0.0000 H   0  0  0  0  0  0  0  0  0  0  0  0
    6.1738    0.2247    0.0000 H   0  0  0  0  0  0  0  0  0  0  0  0
    7.0494    0.1773    0.0000 H   0  0  0  0  0  0  0  0  0  0  0  0
    7.0968    1.0529    0.0000 H   0  0  0  0  0  0  0  0  0  0  0  0
    6.8674    2.1410    0.0000 H   0  0  0  0  0  0  0  0  0  0  0  0
    6.4707    2.9229    0.0000 H   0  0  0  0  0  0  0  0  0  0  0  0
    5.6888    2.5262    0.0000 H   0  0  0  0  0  0  0  0  0  0  0  0
  1  8  2  0  0  0  0
  2  5  1  0  0  0  0
  2  7  1  0  0  0  0
  2 11  1  0  0  0  0
  3  8  1  0  0  0  0
  3 14  1  0  0  0  0
  3 15  1  0  0  0  0
  4  5  1  0  0  0  0
  4  6  1  0  0  0  0
  4  9  2  0  0  0  0
  5 10  2  0  0  0  0
  6  7  2  0  0  0  0
  6  8  1  0  0  0  0
  7 16  1  0  0  0  0
  9 12  1  0  0  0  0
  9 17  1  0  0  0  0
 10 13  1  0  0  0  0
 10 18  1  0  0  0  0
 11 19  1  0  0  0  0
 11 20  1  0  0  0  0
 11 21  1  0  0  0  0
 12 13  2  0  0  0  0
 12 22  1  0  0  0  0
 13 23  1  0  0  0  0
 14 27  1  0  0  0  0
 14 28  1  0  0  0  0
 14 29  1  0  0  0  0
 15 24  1  0  0  0  0
 15 25  1  0  0  0  0
 15 26  1  0  0  0  0
M  END
> <PUBCHEM_COMPOUND_CID>
25348835

> <PUBCHEM_COMPOUND_CANONICALIZED>
1

> <PUBCHEM_CACTVS_COMPLEXITY>
252

> <PUBCHEM_CACTVS_HBOND_ACCEPTOR>
1

> <PUBCHEM_CACTVS_HBOND_DONOR>
0

> <PUBCHEM_CACTVS_ROTATABLE_BOND>
1

> <PUBCHEM_CACTVS_SUBSKEYS>
AAADccBzIAAAAAAAAAAAAAAAAAAAAWAAAAAwAAAAAAAAAFgB8AAAHgAAAAAADAjBngQ+wPMMEACoAzV3VACCgCA1AiAI2CE4ZNgIIPrA1ZGEIYhgggDIyccciMCOgAAAAAACAAAAAAAAAAQAAAAAAAAAAA==

> <PUBCHEM_IUPAC_OPENEYE_NAME>
N,N,1-trimethylindole-3-carboxamide

> <PUBCHEM_IUPAC_CAS_NAME>
N,N,1-trimethyl-3-indolecarboxamide

> <PUBCHEM_IUPAC_NAME>
N,N,1-trimethylindole-3-carboxamide

> <PUBCHEM_IUPAC_SYSTEMATIC_NAME>
N,N,1-trimethylindole-3-carboxamide

> <PUBCHEM_IUPAC_TRADITIONAL_NAME>
N,N,1-trimethylindole-3-carboxamide

> <PUBCHEM_IUPAC_INCHI>
InChI=1S/C12H14N2O/c1-13(2)12(15)10-8-14(3)11-7-5-4-6-9(10)11/h4-8H,1-3H3

> <PUBCHEM_IUPAC_INCHIKEY>
YFZREQOQXZREOU-UHFFFAOYSA-N

> <PUBCHEM_XLOGP3>
1.7

> <PUBCHEM_EXACT_MASS>
202.110613

> <PUBCHEM_MOLECULAR_FORMULA>
C12H14N2O

> <PUBCHEM_MOLECULAR_WEIGHT>
202.25236

> <PUBCHEM_OPENEYE_CAN_SMILES>
CN1C=C(C2=CC=CC=C21)C(=O)N(C)C

> <PUBCHEM_OPENEYE_ISO_SMILES>
CN1C=C(C2=CC=CC=C21)C(=O)N(C)C

> <PUBCHEM_CACTVS_TPSA>
25.2

> <PUBCHEM_MONOISOTOPIC_WEIGHT>
202.110613

> <PUBCHEM_TOTAL_CHARGE>
0

> <PUBCHEM_HEAVY_ATOM_COUNT>
15

> <PUBCHEM_ATOM_DEF_STEREO_COUNT>
0

> <PUBCHEM_ATOM_UDEF_STEREO_COUNT>
0

> <PUBCHEM_BOND_DEF_STEREO_COUNT>
0

> <PUBCHEM_BOND_UDEF_STEREO_COUNT>
0

> <PUBCHEM_ISOTOPIC_ATOM_COUNT>
0

> <PUBCHEM_COMPONENT_COUNT>
1

> <PUBCHEM_CACTVS_TAUTO_COUNT>
1

> <PUBCHEM_COORDINATE_TYPE>
1
5
255

> <PUBCHEM_BONDANNOTATIONS>
10  13  8
12  13  8
2  5  8
2  7  8
4  5  8
4  6  8
4  9  8
5  10  8
6  7  8
9  12  8

$$$$
