23988560
  -OEChem-11301217352D

 44 45  0     1  0  0  0  0  0999 V2000
    2.0000    2.4400    0.0000 O   0  0  0  0  0  0  0  0  0  0  0  0
    3.7320    0.4400    0.0000 N   0  3  0  0  0  0  0  0  0  0  0  0
    4.5981   -0.0600    0.0000 C   0  0  3  0  0  0  0  0  0  0  0  0
    2.8660    0.9400    0.0000 C   0  0  0  0  0  0  0  0  0  0  0  0
    4.2320    1.3060    0.0000 C   0  0  0  0  0  0  0  0  0  0  0  0
    3.2320   -0.4260    0.0000 C   0  0  0  0  0  0  0  0  0  0  0  0
    4.5981   -1.0600    0.0000 C   0  0  0  0  0  0  0  0  0  0  0  0
    5.4641    0.4400    0.0000 C   0  0  0  0  0  0  0  0  0  0  0  0
    2.8660    1.9400    0.0000 C   0  0  0  0  0  0  0  0  0  0  0  0
    3.7320   -1.5600    0.0000 C   0  0  0  0  0  0  0  0  0  0  0  0
    5.4641   -1.5600    0.0000 C   0  0  0  0  0  0  0  0  0  0  0  0
    6.3301   -0.0600    0.0000 C   0  0  0  0  0  0  0  0  0  0  0  0
    5.4641    1.4400    0.0000 C   0  0  0  0  0  0  0  0  0  0  0  0
    3.7320   -2.5600    0.0000 C   0  0  0  0  0  0  0  0  0  0  0  0
    2.8660   -1.0600    0.0000 C   0  0  0  0  0  0  0  0  0  0  0  0
    5.4641   -2.5600    0.0000 C   0  0  0  0  0  0  0  0  0  0  0  0
    7.1962    0.4400    0.0000 C   0  0  0  0  0  0  0  0  0  0  0  0
    6.3301    1.9400    0.0000 C   0  0  0  0  0  0  0  0  0  0  0  0
    4.5981   -3.0600    0.0000 C   0  0  0  0  0  0  0  0  0  0  0  0
    7.1962    1.4400    0.0000 C   0  0  0  0  0  0  0  0  0  0  0  0
    4.5981    0.5600    0.0000 H   0  0  0  0  0  0  0  0  0  0  0  0
    2.2554    1.0477    0.0000 H   0  0  0  0  0  0  0  0  0  0  0  0
    2.6540    0.3574    0.0000 H   0  0  0  0  0  0  0  0  0  0  0  0
    4.7690    0.9960    0.0000 H   0  0  0  0  0  0  0  0  0  0  0  0
    4.5420    1.8430    0.0000 H   0  0  0  0  0  0  0  0  0  0  0  0
    3.6951    1.6160    0.0000 H   0  0  0  0  0  0  0  0  0  0  0  0
    2.6951   -0.1160    0.0000 H   0  0  0  0  0  0  0  0  0  0  0  0
    2.9220   -0.9630    0.0000 H   0  0  0  0  0  0  0  0  0  0  0  0
    3.7690   -0.7360    0.0000 H   0  0  0  0  0  0  0  0  0  0  0  0
    3.4766    1.8323    0.0000 H   0  0  0  0  0  0  0  0  0  0  0  0
    3.0781    2.5226    0.0000 H   0  0  0  0  0  0  0  0  0  0  0  0
    6.0010   -1.2500    0.0000 H   0  0  0  0  0  0  0  0  0  0  0  0
    6.3301   -0.6800    0.0000 H   0  0  0  0  0  0  0  0  0  0  0  0
    4.9272    1.7500    0.0000 H   0  0  0  0  0  0  0  0  0  0  0  0
    3.1951   -2.8700    0.0000 H   0  0  0  0  0  0  0  0  0  0  0  0
    3.1760   -0.5231    0.0000 H   0  0  0  0  0  0  0  0  0  0  0  0
    2.3291   -0.7500    0.0000 H   0  0  0  0  0  0  0  0  0  0  0  0
    2.5560   -1.5969    0.0000 H   0  0  0  0  0  0  0  0  0  0  0  0
    6.0010   -2.8700    0.0000 H   0  0  0  0  0  0  0  0  0  0  0  0
    7.7331    0.1300    0.0000 H   0  0  0  0  0  0  0  0  0  0  0  0
    6.3301    2.5600    0.0000 H   0  0  0  0  0  0  0  0  0  0  0  0
    4.5981   -3.6800    0.0000 H   0  0  0  0  0  0  0  0  0  0  0  0
    2.0000    3.0600    0.0000 H   0  0  0  0  0  0  0  0  0  0  0  0
    7.7331    1.7500    0.0000 H   0  0  0  0  0  0  0  0  0  0  0  0
  1  9  1  0  0  0  0
  1 43  1  0  0  0  0
  2  3  1  0  0  0  0
  2  4  1  0  0  0  0
  2  5  1  0  0  0  0
  2  6  1  0  0  0  0
  3  7  1  0  0  0  0
  3  8  1  0  0  0  0
  3 21  1  0  0  0  0
  4  9  1  0  0  0  0
  4 22  1  0  0  0  0
  4 23  1  0  0  0  0
  5 24  1  0  0  0  0
  5 25  1  0  0  0  0
  5 26  1  0  0  0  0
  6 27  1  0  0  0  0
  6 28  1  0  0  0  0
  6 29  1  0  0  0  0
  7 10  1  0  0  0  0
  7 11  2  0  0  0  0
  8 12  2  0  0  0  0
  8 13  1  0  0  0  0
  9 30  1  0  0  0  0
  9 31  1  0  0  0  0
 10 14  2  0  0  0  0
 10 15  1  0  0  0  0
 11 16  1  0  0  0  0
 11 32  1  0  0  0  0
 12 17  1  0  0  0  0
 12 33  1  0  0  0  0
 13 18  2  0  0  0  0
 13 34  1  0  0  0  0
 14 19  1  0  0  0  0
 14 35  1  0  0  0  0
 15 36  1  0  0  0  0
 15 37  1  0  0  0  0
 15 38  1  0  0  0  0
 16 19  2  0  0  0  0
 16 39  1  0  0  0  0
 17 20  2  0  0  0  0
 17 40  1  0  0  0  0
 18 20  1  0  0  0  0
 18 41  1  0  0  0  0
 19 42  1  0  0  0  0
 20 44  1  0  0  0  0
M  CHG  1   2   1
M  END
> <PUBCHEM_COMPOUND_CID>
23988560

> <PUBCHEM_COMPOUND_CANONICALIZED>
1

> <PUBCHEM_CACTVS_COMPLEXITY>
283

> <PUBCHEM_CACTVS_HBOND_ACCEPTOR>
1

> <PUBCHEM_CACTVS_HBOND_DONOR>
1

> <PUBCHEM_CACTVS_ROTATABLE_BOND>
5

> <PUBCHEM_CACTVS_SUBSKEYS>
AAADceB6IAAAAAAAAAAAAAAAAAAAAAAAAAAwYAAAAAAAAAABQAAAHgAACAAADCjhmAYyAIMAAgCAAiBCAACCAAAgAAAIiAAIBIgKMCKAkRGEIAhggACYiAcQgMAOgAAAAAAQAAAAAAAAACAAAAAAAAAAAA==

> <PUBCHEM_IUPAC_OPENEYE_NAME>
2-hydroxyethyl-dimethyl-[o-tolyl(phenyl)methyl]ammonium

> <PUBCHEM_IUPAC_CAS_NAME>
2-hydroxyethyl-dimethyl-[(2-methylphenyl)-phenylmethyl]ammonium

> <PUBCHEM_IUPAC_NAME>
2-hydroxyethyl-dimethyl-[(2-methylphenyl)-phenylmethyl]azanium

> <PUBCHEM_IUPAC_SYSTEMATIC_NAME>
2-hydroxyethyl-dimethyl-[(2-methylphenyl)-phenyl-methyl]azanium

> <PUBCHEM_IUPAC_TRADITIONAL_NAME>
2-hydroxyethyl-dimethyl-[o-tolyl(phenyl)methyl]ammonium

> <PUBCHEM_IUPAC_INCHI>
InChI=1S/C18H24NO/c1-15-9-7-8-12-17(15)18(19(2,3)13-14-20)16-10-5-4-6-11-16/h4-12,18,20H,13-14H2,1-3H3/q+1

> <PUBCHEM_IUPAC_INCHIKEY>
BGFWERKPECHIAR-UHFFFAOYSA-N

> <PUBCHEM_XLOGP3>
3.1

> <PUBCHEM_EXACT_MASS>
270.185789

> <PUBCHEM_MOLECULAR_FORMULA>
C18H24NO+

> <PUBCHEM_MOLECULAR_WEIGHT>
270.38926

> <PUBCHEM_OPENEYE_CAN_SMILES>
CC1=CC=CC=C1C(C2=CC=CC=C2)[N+](C)(C)CCO

> <PUBCHEM_OPENEYE_ISO_SMILES>
CC1=CC=CC=C1C(C2=CC=CC=C2)[N+](C)(C)CCO

> <PUBCHEM_CACTVS_TPSA>
20.2

> <PUBCHEM_MONOISOTOPIC_WEIGHT>
270.185789

> <PUBCHEM_TOTAL_CHARGE>
1

> <PUBCHEM_HEAVY_ATOM_COUNT>
20

> <PUBCHEM_ATOM_DEF_STEREO_COUNT>
0

> <PUBCHEM_ATOM_UDEF_STEREO_COUNT>
1

> <PUBCHEM_BOND_DEF_STEREO_COUNT>
0

> <PUBCHEM_BOND_UDEF_STEREO_COUNT>
0

> <PUBCHEM_ISOTOPIC_ATOM_COUNT>
0

> <PUBCHEM_COMPONENT_COUNT>
1

> <PUBCHEM_CACTVS_TAUTO_COUNT>
1

> <PUBCHEM_COORDINATE_TYPE>
1
5
255

> <PUBCHEM_BONDANNOTATIONS>
10  14  8
11  16  8
12  17  8
13  18  8
14  19  8
16  19  8
17  20  8
18  20  8
3  2  3
7  10  8
7  11  8
8  12  8
8  13  8

$$$$
23992703
  -OEChem-11301217352D

 33 35  0     0  0  0  0  0  0999 V2000
    3.5731   -0.0602    0.0000 N   0  0  0  0  0  0  0  0  0  0  0  0
    2.7071   -1.5602    0.0000 C   0  0  0  0  0  0  0  0  0  0  0  0
    2.0000   -2.2673    0.0000 C   0  0  0  0  0  0  0  0  0  0  0  0
    3.4142   -2.2673    0.0000 C   0  0  0  0  0  0  0  0  0  0  0  0
    2.7071   -2.9744    0.0000 C   0  0  0  0  0  0  0  0  0  0  0  0
    2.7071   -0.5602    0.0000 C   0  0  0  0  0  0  0  0  0  0  0  0
    3.5731    0.9398    0.0000 C   0  0  0  0  0  0  0  0  0  0  0  0
    4.4392    1.4398    0.0000 C   0  0  0  0  0  0  0  0  0  0  0  0
    2.7071    1.4398    0.0000 C   0  0  0  0  0  0  0  0  0  0  0  0
    4.4392    2.4398    0.0000 C   0  0  0  0  0  0  0  0  0  0  0  0
    5.3331    0.9051    0.0000 C   0  0  0  0  0  0  0  0  0  0  0  0
    2.7071    2.4398    0.0000 C   0  0  0  0  0  0  0  0  0  0  0  0
    3.5731    2.9398    0.0000 C   0  0  0  0  0  0  0  0  0  0  0  0
    5.3331    2.9744    0.0000 C   0  0  0  0  0  0  0  0  0  0  0  0
    6.2392    1.4190    0.0000 C   0  0  0  0  0  0  0  0  0  0  0  0
    6.2392    2.4606    0.0000 C   0  0  0  0  0  0  0  0  0  0  0  0
    3.2799   -1.3230    0.0000 H   0  0  0  0  0  0  0  0  0  0  0  0
    1.5616   -1.8289    0.0000 H   0  0  0  0  0  0  0  0  0  0  0  0
    1.5616   -2.7057    0.0000 H   0  0  0  0  0  0  0  0  0  0  0  0
    3.8526   -2.7057    0.0000 H   0  0  0  0  0  0  0  0  0  0  0  0
    3.8526   -1.8289    0.0000 H   0  0  0  0  0  0  0  0  0  0  0  0
    2.2687   -3.4128    0.0000 H   0  0  0  0  0  0  0  0  0  0  0  0
    3.1455   -3.4128    0.0000 H   0  0  0  0  0  0  0  0  0  0  0  0
    2.4950    0.0224    0.0000 H   0  0  0  0  0  0  0  0  0  0  0  0
    2.0965   -0.6679    0.0000 H   0  0  0  0  0  0  0  0  0  0  0  0
    4.1101   -0.3702    0.0000 H   0  0  0  0  0  0  0  0  0  0  0  0
    2.1702    1.1298    0.0000 H   0  0  0  0  0  0  0  0  0  0  0  0
    5.3259    0.2852    0.0000 H   0  0  0  0  0  0  0  0  0  0  0  0
    2.1702    2.7498    0.0000 H   0  0  0  0  0  0  0  0  0  0  0  0
    3.5731    3.5598    0.0000 H   0  0  0  0  0  0  0  0  0  0  0  0
    5.3259    3.5944    0.0000 H   0  0  0  0  0  0  0  0  0  0  0  0
    6.7749    1.1069    0.0000 H   0  0  0  0  0  0  0  0  0  0  0  0
    6.7749    2.7727    0.0000 H   0  0  0  0  0  0  0  0  0  0  0  0
  1  6  1  0  0  0  0
  1  7  1  0  0  0  0
  1 26  1  0  0  0  0
  2  3  1  0  0  0  0
  2  4  1  0  0  0  0
  2  6  1  0  0  0  0
  2 17  1  0  0  0  0
  3  5  1  0  0  0  0
  3 18  1  0  0  0  0
  3 19  1  0  0  0  0
  4  5  1  0  0  0  0
  4 20  1  0  0  0  0
  4 21  1  0  0  0  0
  5 22  1  0  0  0  0
  5 23  1  0  0  0  0
  6 24  1  0  0  0  0
  6 25  1  0  0  0  0
  7  8  1  0  0  0  0
  7  9  2  0  0  0  0
  8 10  1  0  0  0  0
  8 11  2  0  0  0  0
  9 12  1  0  0  0  0
  9 27  1  0  0  0  0
 10 13  1  0  0  0  0
 10 14  2  0  0  0  0
 11 15  1  0  0  0  0
 11 28  1  0  0  0  0
 12 13  2  0  0  0  0
 12 29  1  0  0  0  0
 13 30  1  0  0  0  0
 14 16  1  0  0  0  0
 14 31  1  0  0  0  0
 15 16  2  0  0  0  0
 15 32  1  0  0  0  0
 16 33  1  0  0  0  0
M  END
> <PUBCHEM_COMPOUND_CID>
23992703

> <PUBCHEM_COMPOUND_CANONICALIZED>
1

> <PUBCHEM_CACTVS_COMPLEXITY>
222

> <PUBCHEM_CACTVS_HBOND_ACCEPTOR>
1

> <PUBCHEM_CACTVS_HBOND_DONOR>
1

> <PUBCHEM_CACTVS_ROTATABLE_BOND>
3

> <PUBCHEM_CACTVS_SUBSKEYS>
AAADceByAAAAAAAAAAAAAAAAAABgAAAAAAAwYAAAAAAAAADBUAAAHAAQAAAADQjBGAQwwMLAAACAAiRCQACCAAAhAgAIiIAIZIgIICLAkZGEIAhgkADIyAcQgIAOgAAAQAASAAAAAACAACQAAAAAAAAAAA==

> <PUBCHEM_IUPAC_OPENEYE_NAME>
N-(cyclobutylmethyl)naphthalen-1-amine

> <PUBCHEM_IUPAC_CAS_NAME>
N-(cyclobutylmethyl)-1-naphthalenamine

> <PUBCHEM_IUPAC_NAME>
N-(cyclobutylmethyl)naphthalen-1-amine

> <PUBCHEM_IUPAC_SYSTEMATIC_NAME>
N-(cyclobutylmethyl)naphthalen-1-amine

> <PUBCHEM_IUPAC_TRADITIONAL_NAME>
cyclobutylmethyl(1-naphthyl)amine

> <PUBCHEM_IUPAC_INCHI>
InChI=1S/C15H17N/c1-2-9-14-13(7-1)8-4-10-15(14)16-11-12-5-3-6-12/h1-2,4,7-10,12,16H,3,5-6,11H2

> <PUBCHEM_IUPAC_INCHIKEY>
MNCMDKFLUXZXRQ-UHFFFAOYSA-N

> <PUBCHEM_XLOGP3>
4.2

> <PUBCHEM_EXACT_MASS>
211.1361

> <PUBCHEM_MOLECULAR_FORMULA>
C15H17N

> <PUBCHEM_MOLECULAR_WEIGHT>
211.30218

> <PUBCHEM_OPENEYE_CAN_SMILES>
C1CC(C1)CNC2=CC=CC3=CC=CC=C32

> <PUBCHEM_OPENEYE_ISO_SMILES>
C1CC(C1)CNC2=CC=CC3=CC=CC=C32

> <PUBCHEM_CACTVS_TPSA>
12

> <PUBCHEM_MONOISOTOPIC_WEIGHT>
211.1361

> <PUBCHEM_TOTAL_CHARGE>
0

> <PUBCHEM_HEAVY_ATOM_COUNT>
16

> <PUBCHEM_ATOM_DEF_STEREO_COUNT>
0

> <PUBCHEM_ATOM_UDEF_STEREO_COUNT>
0

> <PUBCHEM_BOND_DEF_STEREO_COUNT>
0

> <PUBCHEM_BOND_UDEF_STEREO_COUNT>
0

> <PUBCHEM_ISOTOPIC_ATOM_COUNT>
0

> <PUBCHEM_COMPONENT_COUNT>
1

> <PUBCHEM_CACTVS_TAUTO_COUNT>
1

> <PUBCHEM_COORDINATE_TYPE>
1
5
255

> <PUBCHEM_BONDANNOTATIONS>
10  13  8
10  14  8
11  15  8
12  13  8
14  16  8
15  16  8
7  8  8
7  9  8
8  10  8
8  11  8
9  12  8

$$$$
