33678137
  -OEChem-06011308372D

 29 30  0     0  0  0  0  0  0999 V2000
    4.9889    0.9462    0.0000 S   0  0  0  0  0  0  0  0  0  0  0  0
    4.6783   -1.6138    0.0000 N   0  0  0  0  0  0  0  0  0  0  0  0
    6.6353    0.4081    0.0000 N   0  3  0  0  0  0  0  0  0  0  0  0
    6.2781    2.1029    0.0000 N   0  0  0  0  0  0  0  0  0  0  0  0
    3.7320   -1.3091    0.0000 C   0  0  0  0  0  0  0  0  0  0  0  0
    3.7320   -0.3091    0.0000 C   0  0  0  0  0  0  0  0  0  0  0  0
    5.2619   -0.8091    0.0000 C   0  0  0  0  0  0  0  0  0  0  0  0
    4.6783   -0.0044    0.0000 C   0  0  0  0  0  0  0  0  0  0  0  0
    2.8660   -1.8091    0.0000 C   0  0  0  0  0  0  0  0  0  0  0  0
    2.8660    0.1909    0.0000 C   0  0  0  0  0  0  0  0  0  0  0  0
    4.9889   -2.5644    0.0000 C   0  0  0  0  0  0  0  0  0  0  0  0
    6.2619   -0.8091    0.0000 C   0  0  0  0  0  0  0  0  0  0  0  0
    2.0000   -1.3091    0.0000 C   0  0  0  0  0  0  0  0  0  0  0  0
    2.0000   -0.3091    0.0000 C   0  0  0  0  0  0  0  0  0  0  0  0
    5.9674    1.1524    0.0000 C   0  0  0  0  0  0  0  0  0  0  0  0
    2.8660   -2.4291    0.0000 H   0  0  0  0  0  0  0  0  0  0  0  0
    2.8660    0.8109    0.0000 H   0  0  0  0  0  0  0  0  0  0  0  0
    4.3996   -2.7570    0.0000 H   0  0  0  0  0  0  0  0  0  0  0  0
    5.1815   -3.1537    0.0000 H   0  0  0  0  0  0  0  0  0  0  0  0
    5.5783   -2.3717    0.0000 H   0  0  0  0  0  0  0  0  0  0  0  0
    6.2619   -1.4291    0.0000 H   0  0  0  0  0  0  0  0  0  0  0  0
    6.8819   -0.8091    0.0000 H   0  0  0  0  0  0  0  0  0  0  0  0
    6.2619   -0.1891    0.0000 H   0  0  0  0  0  0  0  0  0  0  0  0
    1.4631   -1.6191    0.0000 H   0  0  0  0  0  0  0  0  0  0  0  0
    1.4631    0.0009    0.0000 H   0  0  0  0  0  0  0  0  0  0  0  0
    7.2420    0.5359    0.0000 H   0  0  0  0  0  0  0  0  0  0  0  0
    6.4427   -0.1813    0.0000 H   0  0  0  0  0  0  0  0  0  0  0  0
    5.8640    2.5644    0.0000 H   0  0  0  0  0  0  0  0  0  0  0  0
    6.8848    2.2307    0.0000 H   0  0  0  0  0  0  0  0  0  0  0  0
  1  8  1  0  0  0  0
  1 15  1  0  0  0  0
  2  5  1  0  0  0  0
  2  7  1  0  0  0  0
  2 11  1  0  0  0  0
  3 15  2  0  0  0  0
  3 26  1  0  0  0  0
  3 27  1  0  0  0  0
  4 15  1  0  0  0  0
  4 28  1  0  0  0  0
  4 29  1  0  0  0  0
  5  6  1  0  0  0  0
  5  9  2  0  0  0  0
  6  8  1  0  0  0  0
  6 10  2  0  0  0  0
  7  8  2  0  0  0  0
  7 12  1  0  0  0  0
  9 13  1  0  0  0  0
  9 16  1  0  0  0  0
 10 14  1  0  0  0  0
 10 17  1  0  0  0  0
 11 18  1  0  0  0  0
 11 19  1  0  0  0  0
 11 20  1  0  0  0  0
 12 21  1  0  0  0  0
 12 22  1  0  0  0  0
 12 23  1  0  0  0  0
 13 14  2  0  0  0  0
 13 24  1  0  0  0  0
 14 25  1  0  0  0  0
M  CHG  1   3   1
M  END
> <PUBCHEM_COMPOUND_CID>
33678137

> <PUBCHEM_COMPOUND_CANONICALIZED>
1

> <PUBCHEM_CACTVS_COMPLEXITY>
251

> <PUBCHEM_CACTVS_HBOND_ACCEPTOR>
1

> <PUBCHEM_CACTVS_HBOND_DONOR>
2

> <PUBCHEM_CACTVS_ROTATABLE_BOND>
2

> <PUBCHEM_CACTVS_SUBSKEYS>
AAADccBzAABAAAAAAAAAAAAAAAAAAWAAAAAwAAAAAAAAAFgB8AAAHAQQAAAADAiBXgQzwfNMEAigAyRiZACCgiDhCjAI2DQ4ZJgIIOLgkZGEIAxggADIyAcQgIAOAAAAAAACAAAAAAAAAAQAAAAAAAAAAA==

> <PUBCHEM_IUPAC_OPENEYE_NAME>
[amino-(1,2-dimethylindol-3-yl)sulfanyl-methylene]ammonium

> <PUBCHEM_IUPAC_CAS_NAME>
[amino-[(1,2-dimethyl-3-indolyl)thio]methylidene]ammonium

> <PUBCHEM_IUPAC_NAME>
[amino-(1,2-dimethylindol-3-yl)sulfanylmethylidene]azanium

> <PUBCHEM_IUPAC_SYSTEMATIC_NAME>
[azanyl-(1,2-dimethylindol-3-yl)sulfanyl-methylidene]azanium

> <PUBCHEM_IUPAC_TRADITIONAL_NAME>
[amino-[(1,2-dimethylindol-3-yl)thio]methylene]ammonium

> <PUBCHEM_IUPAC_INCHI>
InChI=1S/C11H13N3S/c1-7-10(15-11(12)13)8-5-3-4-6-9(8)14(7)2/h3-6H,1-2H3,(H3,12,13)/p+1

> <PUBCHEM_IUPAC_INCHIKEY>
NSDYLTVZPYDTLA-UHFFFAOYSA-O

> <PUBCHEM_XLOGP3>
2.2

> <PUBCHEM_EXACT_MASS>
220.090843

> <PUBCHEM_MOLECULAR_FORMULA>
C11H14N3S+

> <PUBCHEM_MOLECULAR_WEIGHT>
220.31396

> <PUBCHEM_OPENEYE_CAN_SMILES>
CC1=C(C2=CC=CC=C2N1C)SC(=[NH2+])N

> <PUBCHEM_OPENEYE_ISO_SMILES>
CC1=C(C2=CC=CC=C2N1C)SC(=[NH2+])N

> <PUBCHEM_CACTVS_TPSA>
81.8

> <PUBCHEM_MONOISOTOPIC_WEIGHT>
220.090843

> <PUBCHEM_TOTAL_CHARGE>
1

> <PUBCHEM_HEAVY_ATOM_COUNT>
15

> <PUBCHEM_ATOM_DEF_STEREO_COUNT>
0

> <PUBCHEM_ATOM_UDEF_STEREO_COUNT>
0

> <PUBCHEM_BOND_DEF_STEREO_COUNT>
0

> <PUBCHEM_BOND_UDEF_STEREO_COUNT>
0

> <PUBCHEM_ISOTOPIC_ATOM_COUNT>
0

> <PUBCHEM_COMPONENT_COUNT>
1

> <PUBCHEM_CACTVS_TAUTO_COUNT>
2

> <PUBCHEM_COORDINATE_TYPE>
1
5
255

> <PUBCHEM_BONDANNOTATIONS>
10  14  8
13  14  8
2  5  8
2  7  8
5  6  8
5  9  8
6  10  8
6  8  8
7  8  8
9  13  8

$$$$
33678142
  -OEChem-06011308372D

 32 33  0     0  0  0  0  0  0999 V2000
    4.9889    0.7704    0.0000 S   0  0  0  0  0  0  0  0  0  0  0  0
    4.6783   -1.7896    0.0000 N   0  0  0  0  0  0  0  0  0  0  0  0
    7.2566    2.1334    0.0000 N   0  3  0  0  0  0  0  0  0  0  0  0
    3.7320   -1.4848    0.0000 C   0  0  0  0  0  0  0  0  0  0  0  0
    3.7320   -0.4848    0.0000 C   0  0  0  0  0  0  0  0  0  0  0  0
    5.2619   -0.9848    0.0000 C   0  0  0  0  0  0  0  0  0  0  0  0
    4.6783   -0.1801    0.0000 C   0  0  0  0  0  0  0  0  0  0  0  0
    2.8660   -1.9848    0.0000 C   0  0  0  0  0  0  0  0  0  0  0  0
    2.8660    0.0152    0.0000 C   0  0  0  0  0  0  0  0  0  0  0  0
    4.9889   -2.7401    0.0000 C   0  0  0  0  0  0  0  0  0  0  0  0
    6.2619   -0.9848    0.0000 C   0  0  0  0  0  0  0  0  0  0  0  0
    5.9674    0.9767    0.0000 C   0  0  0  0  0  0  0  0  0  0  0  0
    6.2781    1.9272    0.0000 C   0  0  0  0  0  0  0  0  0  0  0  0
    2.0000   -1.4848    0.0000 C   0  0  0  0  0  0  0  0  0  0  0  0
    2.0000   -0.4848    0.0000 C   0  0  0  0  0  0  0  0  0  0  0  0
    2.8660   -2.6048    0.0000 H   0  0  0  0  0  0  0  0  0  0  0  0
    2.8660    0.6352    0.0000 H   0  0  0  0  0  0  0  0  0  0  0  0
    4.3996   -2.9327    0.0000 H   0  0  0  0  0  0  0  0  0  0  0  0
    5.1815   -3.3294    0.0000 H   0  0  0  0  0  0  0  0  0  0  0  0
    5.5783   -2.5475    0.0000 H   0  0  0  0  0  0  0  0  0  0  0  0
    6.2619   -1.6048    0.0000 H   0  0  0  0  0  0  0  0  0  0  0  0
    6.8819   -0.9848    0.0000 H   0  0  0  0  0  0  0  0  0  0  0  0
    6.2619   -0.3648    0.0000 H   0  0  0  0  0  0  0  0  0  0  0  0
    5.9880    0.3570    0.0000 H   0  0  0  0  0  0  0  0  0  0  0  0
    6.5812    0.8893    0.0000 H   0  0  0  0  0  0  0  0  0  0  0  0
    6.2575    2.5468    0.0000 H   0  0  0  0  0  0  0  0  0  0  0  0
    5.6643    2.0145    0.0000 H   0  0  0  0  0  0  0  0  0  0  0  0
    1.4631   -1.7948    0.0000 H   0  0  0  0  0  0  0  0  0  0  0  0
    1.4631   -0.1748    0.0000 H   0  0  0  0  0  0  0  0  0  0  0  0
    7.8633    2.2612    0.0000 H   0  0  0  0  0  0  0  0  0  0  0  0
    7.1288    2.7401    0.0000 H   0  0  0  0  0  0  0  0  0  0  0  0
    7.3845    1.5267    0.0000 H   0  0  0  0  0  0  0  0  0  0  0  0
  1  7  1  0  0  0  0
  1 12  1  0  0  0  0
  2  4  1  0  0  0  0
  2  6  1  0  0  0  0
  2 10  1  0  0  0  0
  3 13  1  0  0  0  0
  3 30  1  0  0  0  0
  3 31  1  0  0  0  0
  3 32  1  0  0  0  0
  4  5  1  0  0  0  0
  4  8  2  0  0  0  0
  5  7  1  0  0  0  0
  5  9  2  0  0  0  0
  6  7  2  0  0  0  0
  6 11  1  0  0  0  0
  8 14  1  0  0  0  0
  8 16  1  0  0  0  0
  9 15  1  0  0  0  0
  9 17  1  0  0  0  0
 10 18  1  0  0  0  0
 10 19  1  0  0  0  0
 10 20  1  0  0  0  0
 11 21  1  0  0  0  0
 11 22  1  0  0  0  0
 11 23  1  0  0  0  0
 12 13  1  0  0  0  0
 12 24  1  0  0  0  0
 12 25  1  0  0  0  0
 13 26  1  0  0  0  0
 13 27  1  0  0  0  0
 14 15  2  0  0  0  0
 14 28  1  0  0  0  0
 15 29  1  0  0  0  0
M  CHG  1   3   1
M  END
> <PUBCHEM_COMPOUND_CID>
33678142

> <PUBCHEM_COMPOUND_CANONICALIZED>
1

> <PUBCHEM_CACTVS_COMPLEXITY>
210

> <PUBCHEM_CACTVS_HBOND_ACCEPTOR>
1

> <PUBCHEM_CACTVS_HBOND_DONOR>
1

> <PUBCHEM_CACTVS_ROTATABLE_BOND>
3

> <PUBCHEM_CACTVS_SUBSKEYS>
AAADceBzAABAAAAAAAAAAAAAAAAAAWAAAAAwAAAAAAAAAFgB8AAAHAQQAAAADAjFXgSywfNMEAigAyRiRACCgCAhCjAI2LQ4ZJgIIOLgkZGEIAxgkADoyAcQgIAOAAAAAAACAAAAAAAAAAQAAAAAAAAAAA==

> <PUBCHEM_IUPAC_OPENEYE_NAME>
2-(1,2-dimethylindol-3-yl)sulfanylethylammonium

> <PUBCHEM_IUPAC_CAS_NAME>
2-[(1,2-dimethyl-3-indolyl)thio]ethylammonium

> <PUBCHEM_IUPAC_NAME>
2-(1,2-dimethylindol-3-yl)sulfanylethylazanium

> <PUBCHEM_IUPAC_SYSTEMATIC_NAME>
2-(1,2-dimethylindol-3-yl)sulfanylethylazanium

> <PUBCHEM_IUPAC_TRADITIONAL_NAME>
2-[(1,2-dimethylindol-3-yl)thio]ethylammonium

> <PUBCHEM_IUPAC_INCHI>
InChI=1S/C12H16N2S/c1-9-12(15-8-7-13)10-5-3-4-6-11(10)14(9)2/h3-6H,7-8,13H2,1-2H3/p+1

> <PUBCHEM_IUPAC_INCHIKEY>
SPLLUYUXNRLCBJ-UHFFFAOYSA-O

> <PUBCHEM_XLOGP3>
1.9

> <PUBCHEM_EXACT_MASS>
221.111245

> <PUBCHEM_MOLECULAR_FORMULA>
C12H17N2S+

> <PUBCHEM_MOLECULAR_WEIGHT>
221.34178

> <PUBCHEM_OPENEYE_CAN_SMILES>
CC1=C(C2=CC=CC=C2N1C)SCC[NH3+]

> <PUBCHEM_OPENEYE_ISO_SMILES>
CC1=C(C2=CC=CC=C2N1C)SCC[NH3+]

> <PUBCHEM_CACTVS_TPSA>
57.9

> <PUBCHEM_MONOISOTOPIC_WEIGHT>
221.111245

> <PUBCHEM_TOTAL_CHARGE>
1

> <PUBCHEM_HEAVY_ATOM_COUNT>
15

> <PUBCHEM_ATOM_DEF_STEREO_COUNT>
0

> <PUBCHEM_ATOM_UDEF_STEREO_COUNT>
0

> <PUBCHEM_BOND_DEF_STEREO_COUNT>
0

> <PUBCHEM_BOND_UDEF_STEREO_COUNT>
0

> <PUBCHEM_ISOTOPIC_ATOM_COUNT>
0

> <PUBCHEM_COMPONENT_COUNT>
1

> <PUBCHEM_CACTVS_TAUTO_COUNT>
1

> <PUBCHEM_COORDINATE_TYPE>
1
5
255

> <PUBCHEM_BONDANNOTATIONS>
14  15  8
2  4  8
2  6  8
4  5  8
4  8  8
5  7  8
5  9  8
6  7  8
8  14  8
9  15  8

$$$$
33679483
  -OEChem-06011308372D

 27 27  0     0  0  0  0  0  0999 V2000
    3.7320   -3.1550    0.0000 O   0  0  0  0  0  0  0  0  0  0  0  0
    4.5981    1.3450    0.0000 N   0  3  0  0  0  0  0  0  0  0  0  0
    2.8660   -1.6550    0.0000 N   0  0  0  0  0  0  0  0  0  0  0  0
    5.4641    2.8450    0.0000 N   0  0  0  0  0  0  0  0  0  0  0  0
    6.3301    1.3450    0.0000 N   0  0  0  0  0  0  0  0  0  0  0  0
    4.5981    0.3450    0.0000 C   0  0  0  0  0  0  0  0  0  0  0  0
    3.7320   -1.1550    0.0000 C   0  0  0  0  0  0  0  0  0  0  0  0
    3.7320   -0.1550    0.0000 C   0  0  0  0  0  0  0  0  0  0  0  0
    5.4641   -0.1550    0.0000 C   0  0  0  0  0  0  0  0  0  0  0  0
    4.5981   -1.6550    0.0000 C   0  0  0  0  0  0  0  0  0  0  0  0
    5.4641   -1.1550    0.0000 C   0  0  0  0  0  0  0  0  0  0  0  0
    5.4641    1.8450    0.0000 C   0  0  0  0  0  0  0  0  0  0  0  0
    2.8660   -2.6550    0.0000 C   0  0  0  0  0  0  0  0  0  0  0  0
    2.0000   -3.1550    0.0000 C   0  0  0  0  0  0  0  0  0  0  0  0
    3.1951    0.1550    0.0000 H   0  0  0  0  0  0  0  0  0  0  0  0
    6.0010    0.1550    0.0000 H   0  0  0  0  0  0  0  0  0  0  0  0
    4.5981   -2.2750    0.0000 H   0  0  0  0  0  0  0  0  0  0  0  0
    6.0010   -1.4650    0.0000 H   0  0  0  0  0  0  0  0  0  0  0  0
    4.0611    1.6550    0.0000 H   0  0  0  0  0  0  0  0  0  0  0  0
    2.3291   -1.3450    0.0000 H   0  0  0  0  0  0  0  0  0  0  0  0
    1.6900   -2.6181    0.0000 H   0  0  0  0  0  0  0  0  0  0  0  0
    1.4631   -3.4650    0.0000 H   0  0  0  0  0  0  0  0  0  0  0  0
    2.3100   -3.6919    0.0000 H   0  0  0  0  0  0  0  0  0  0  0  0
    6.8671    1.6550    0.0000 H   0  0  0  0  0  0  0  0  0  0  0  0
    6.3301    0.7250    0.0000 H   0  0  0  0  0  0  0  0  0  0  0  0
    6.0010    3.1550    0.0000 H   0  0  0  0  0  0  0  0  0  0  0  0
    4.9272    3.1550    0.0000 H   0  0  0  0  0  0  0  0  0  0  0  0
  1 13  2  0  0  0  0
  2  6  1  0  0  0  0
  2 12  2  0  0  0  0
  2 19  1  0  0  0  0
  3  7  1  0  0  0  0
  3 13  1  0  0  0  0
  3 20  1  0  0  0  0
  4 12  1  0  0  0  0
  4 26  1  0  0  0  0
  4 27  1  0  0  0  0
  5 12  1  0  0  0  0
  5 24  1  0  0  0  0
  5 25  1  0  0  0  0
  6  8  1  0  0  0  0
  6  9  2  0  0  0  0
  7  8  2  0  0  0  0
  7 10  1  0  0  0  0
  8 15  1  0  0  0  0
  9 11  1  0  0  0  0
  9 16  1  0  0  0  0
 10 11  2  0  0  0  0
 10 17  1  0  0  0  0
 11 18  1  0  0  0  0
 13 14  1  0  0  0  0
 14 21  1  0  0  0  0
 14 22  1  0  0  0  0
 14 23  1  0  0  0  0
M  CHG  1   2   1
M  END
> <PUBCHEM_COMPOUND_CID>
33679483

> <PUBCHEM_COMPOUND_CANONICALIZED>
1

> <PUBCHEM_CACTVS_COMPLEXITY>
235

> <PUBCHEM_CACTVS_HBOND_ACCEPTOR>
1

> <PUBCHEM_CACTVS_HBOND_DONOR>
4

> <PUBCHEM_CACTVS_ROTATABLE_BOND>
2

> <PUBCHEM_CACTVS_SUBSKEYS>
AAADccBzoAAAAAAAAAAAAAAAAAAAAAAAAAAwAAAAAAAAAAABAAAAHgAQAAAACAiBkAAzwILAAACoACVSdACCAAGhAgAIiAAAZIgIICLA0dGEIAhglADIyAcQAAAAAAAAAAQAAAAAAAAACAAAAAAAAAAAAA==

> <PUBCHEM_IUPAC_OPENEYE_NAME>
(3-acetamidophenyl)-(diaminomethylene)ammonium

> <PUBCHEM_IUPAC_CAS_NAME>
(3-acetamidophenyl)-(diaminomethylidene)ammonium

> <PUBCHEM_IUPAC_NAME>
(3-acetamidophenyl)-(diaminomethylidene)azanium

> <PUBCHEM_IUPAC_SYSTEMATIC_NAME>
(3-acetamidophenyl)-[bis(azanyl)methylidene]azanium

> <PUBCHEM_IUPAC_TRADITIONAL_NAME>
(3-acetamidophenyl)-(diaminomethylene)ammonium

> <PUBCHEM_IUPAC_INCHI>
InChI=1S/C9H12N4O/c1-6(14)12-7-3-2-4-8(5-7)13-9(10)11/h2-5H,1H3,(H,12,14)(H4,10,11,13)/p+1

> <PUBCHEM_IUPAC_INCHIKEY>
UCUNRBHZCYABOH-UHFFFAOYSA-O

> <PUBCHEM_XLOGP3>
0.1

> <PUBCHEM_EXACT_MASS>
193.108936

> <PUBCHEM_MOLECULAR_FORMULA>
C9H13N4O+

> <PUBCHEM_MOLECULAR_WEIGHT>
193.22572

> <PUBCHEM_OPENEYE_CAN_SMILES>
CC(=O)NC1=CC(=CC=C1)[NH+]=C(N)N

> <PUBCHEM_OPENEYE_ISO_SMILES>
CC(=O)NC1=CC(=CC=C1)[NH+]=C(N)N

> <PUBCHEM_CACTVS_TPSA>
95.1

> <PUBCHEM_MONOISOTOPIC_WEIGHT>
193.108936

> <PUBCHEM_TOTAL_CHARGE>
1

> <PUBCHEM_HEAVY_ATOM_COUNT>
14

> <PUBCHEM_ATOM_DEF_STEREO_COUNT>
0

> <PUBCHEM_ATOM_UDEF_STEREO_COUNT>
0

> <PUBCHEM_BOND_DEF_STEREO_COUNT>
0

> <PUBCHEM_BOND_UDEF_STEREO_COUNT>
0

> <PUBCHEM_ISOTOPIC_ATOM_COUNT>
0

> <PUBCHEM_COMPONENT_COUNT>
1

> <PUBCHEM_CACTVS_TAUTO_COUNT>
6

> <PUBCHEM_COORDINATE_TYPE>
1
5
255

> <PUBCHEM_BONDANNOTATIONS>
10  11  8
6  8  8
6  9  8
7  10  8
7  8  8
9  11  8

$$$$
33695371
  -OEChem-06011308372D

 28 28  0     0  0  0  0  0  0999 V2000
    5.4641    3.5000    0.0000 Br  0  0  0  0  0  0  0  0  0  0  0  0
    5.4641    0.5000    0.0000 O   0  0  0  0  0  0  0  0  0  0  0  0
    3.7320    0.5000    0.0000 N   0  0  0  0  0  0  0  0  0  0  0  0
    3.7320   -0.5000    0.0000 C   0  0  0  0  0  0  0  0  0  0  0  0
    2.8660   -1.0000    0.0000 C   0  0  0  0  0  0  0  0  0  0  0  0
    3.7320   -2.5000    0.0000 C   0  0  0  0  0  0  0  0  0  0  0  0
    2.8660   -2.0000    0.0000 C   0  0  0  0  0  0  0  0  0  0  0  0
    4.5981   -1.0000    0.0000 C   0  0  0  0  0  0  0  0  0  0  0  0
    4.5981   -2.0000    0.0000 C   0  0  0  0  0  0  0  0  0  0  0  0
    2.0000   -0.5000    0.0000 C   0  0  0  0  0  0  0  0  0  0  0  0
    4.5981    2.0000    0.0000 C   0  0  0  0  0  0  0  0  0  0  0  0
    4.5981    1.0000    0.0000 C   0  0  0  0  0  0  0  0  0  0  0  0
    3.7320   -3.5000    0.0000 C   0  0  0  0  0  0  0  0  0  0  0  0
    5.4641    2.5000    0.0000 C   0  0  0  0  0  0  0  0  0  0  0  0
    2.3291   -2.3100    0.0000 H   0  0  0  0  0  0  0  0  0  0  0  0
    5.1350   -0.6900    0.0000 H   0  0  0  0  0  0  0  0  0  0  0  0
    3.1951    0.8100    0.0000 H   0  0  0  0  0  0  0  0  0  0  0  0
    5.1350   -2.3100    0.0000 H   0  0  0  0  0  0  0  0  0  0  0  0
    2.3100    0.0369    0.0000 H   0  0  0  0  0  0  0  0  0  0  0  0
    1.4631   -0.1900    0.0000 H   0  0  0  0  0  0  0  0  0  0  0  0
    1.6900   -1.0369    0.0000 H   0  0  0  0  0  0  0  0  0  0  0  0
    4.3860    2.5826    0.0000 H   0  0  0  0  0  0  0  0  0  0  0  0
    3.9875    1.8923    0.0000 H   0  0  0  0  0  0  0  0  0  0  0  0
    3.1120   -3.5000    0.0000 H   0  0  0  0  0  0  0  0  0  0  0  0
    3.7320   -4.1200    0.0000 H   0  0  0  0  0  0  0  0  0  0  0  0
    4.3520   -3.5000    0.0000 H   0  0  0  0  0  0  0  0  0  0  0  0
    5.6762    1.9174    0.0000 H   0  0  0  0  0  0  0  0  0  0  0  0
    6.0747    2.6077    0.0000 H   0  0  0  0  0  0  0  0  0  0  0  0
  1 14  1  0  0  0  0
  2 12  2  0  0  0  0
  3  4  1  0  0  0  0
  3 12  1  0  0  0  0
  3 17  1  0  0  0  0
  4  5  2  0  0  0  0
  4  8  1  0  0  0  0
  5  7  1  0  0  0  0
  5 10  1  0  0  0  0
  6  7  2  0  0  0  0
  6  9  1  0  0  0  0
  6 13  1  0  0  0  0
  7 15  1  0  0  0  0
  8  9  2  0  0  0  0
  8 16  1  0  0  0  0
  9 18  1  0  0  0  0
 10 19  1  0  0  0  0
 10 20  1  0  0  0  0
 10 21  1  0  0  0  0
 11 12  1  0  0  0  0
 11 14  1  0  0  0  0
 11 22  1  0  0  0  0
 11 23  1  0  0  0  0
 13 24  1  0  0  0  0
 13 25  1  0  0  0  0
 13 26  1  0  0  0  0
 14 27  1  0  0  0  0
 14 28  1  0  0  0  0
M  END
> <PUBCHEM_COMPOUND_CID>
33695371

> <PUBCHEM_COMPOUND_CANONICALIZED>
1

> <PUBCHEM_CACTVS_COMPLEXITY>
196

> <PUBCHEM_CACTVS_HBOND_ACCEPTOR>
1

> <PUBCHEM_CACTVS_HBOND_DONOR>
1

> <PUBCHEM_CACTVS_ROTATABLE_BOND>
3

> <PUBCHEM_CACTVS_SUBSKEYS>
AAADccByIAAAEAAAAAAAAAAAAAAAAAAAAAAwAAAAAAAAAAABAAAAHgBQAAABTAiBmAAywILAAACIAiVSUACCAAAhAgAIiAEAZKgIICLAkZGEIAhglADIyAcQgEAOCAACAAACAAAQAAQAAAQAAAAAAAAAAA==

> <PUBCHEM_IUPAC_OPENEYE_NAME>
3-bromo-N-(2,4-dimethylphenyl)propanamide

> <PUBCHEM_IUPAC_CAS_NAME>
3-bromo-N-(2,4-dimethylphenyl)propanamide

> <PUBCHEM_IUPAC_NAME>
3-bromo-N-(2,4-dimethylphenyl)propanamide

> <PUBCHEM_IUPAC_SYSTEMATIC_NAME>
3-bromanyl-N-(2,4-dimethylphenyl)propanamide

> <PUBCHEM_IUPAC_TRADITIONAL_NAME>
3-bromo-N-(2,4-dimethylphenyl)propionamide

> <PUBCHEM_IUPAC_INCHI>
InChI=1S/C11H14BrNO/c1-8-3-4-10(9(2)7-8)13-11(14)5-6-12/h3-4,7H,5-6H2,1-2H3,(H,13,14)

> <PUBCHEM_IUPAC_INCHIKEY>
GSNUGCUKNIECCW-UHFFFAOYSA-N

> <PUBCHEM_XLOGP3>
2.2

> <PUBCHEM_EXACT_MASS>
255.025876

> <PUBCHEM_MOLECULAR_FORMULA>
C11H14BrNO

> <PUBCHEM_MOLECULAR_WEIGHT>
256.13896

> <PUBCHEM_OPENEYE_CAN_SMILES>
CC1=CC(=C(C=C1)NC(=O)CCBr)C

> <PUBCHEM_OPENEYE_ISO_SMILES>
CC1=CC(=C(C=C1)NC(=O)CCBr)C

> <PUBCHEM_CACTVS_TPSA>
29.1

> <PUBCHEM_MONOISOTOPIC_WEIGHT>
255.025876

> <PUBCHEM_TOTAL_CHARGE>
0

> <PUBCHEM_HEAVY_ATOM_COUNT>
14

> <PUBCHEM_ATOM_DEF_STEREO_COUNT>
0

> <PUBCHEM_ATOM_UDEF_STEREO_COUNT>
0

> <PUBCHEM_BOND_DEF_STEREO_COUNT>
0

> <PUBCHEM_BOND_UDEF_STEREO_COUNT>
0

> <PUBCHEM_ISOTOPIC_ATOM_COUNT>
0

> <PUBCHEM_COMPONENT_COUNT>
1

> <PUBCHEM_CACTVS_TAUTO_COUNT>
3

> <PUBCHEM_COORDINATE_TYPE>
1
5
255

> <PUBCHEM_BONDANNOTATIONS>
4  5  8
4  8  8
5  7  8
6  7  8
6  9  8
8  9  8

$$$$
33695378
  -OEChem-06011308372D

 22 22  0     0  0  0  0  0  0999 V2000
    2.0000    0.0000    0.0000 Br  0  0  0  0  0  0  0  0  0  0  0  0
    5.4641    3.0000    0.0000 Br  0  0  0  0  0  0  0  0  0  0  0  0
    5.4641    1.0000    0.0000 O   0  0  0  0  0  0  0  0  0  0  0  0
    3.7320    1.0000    0.0000 N   0  0  0  0  0  0  0  0  0  0  0  0
    3.7320    0.0000    0.0000 C   0  0  0  0  0  0  0  0  0  0  0  0
    3.7320   -2.0000    0.0000 C   0  0  0  0  0  0  0  0  0  0  0  0
    2.8660   -0.5000    0.0000 C   0  0  0  0  0  0  0  0  0  0  0  0
    4.5981   -0.5000    0.0000 C   0  0  0  0  0  0  0  0  0  0  0  0
    2.8660   -1.5000    0.0000 C   0  0  0  0  0  0  0  0  0  0  0  0
    4.5981   -1.5000    0.0000 C   0  0  0  0  0  0  0  0  0  0  0  0
    3.7320   -3.0000    0.0000 C   0  0  0  0  0  0  0  0  0  0  0  0
    4.5981    1.5000    0.0000 C   0  0  0  0  0  0  0  0  0  0  0  0
    4.5981    2.5000    0.0000 C   0  0  0  0  0  0  0  0  0  0  0  0
    5.1350   -0.1900    0.0000 H   0  0  0  0  0  0  0  0  0  0  0  0
    2.3291   -1.8100    0.0000 H   0  0  0  0  0  0  0  0  0  0  0  0
    5.1350   -1.8100    0.0000 H   0  0  0  0  0  0  0  0  0  0  0  0
    3.1951    1.3100    0.0000 H   0  0  0  0  0  0  0  0  0  0  0  0
    3.1120   -3.0000    0.0000 H   0  0  0  0  0  0  0  0  0  0  0  0
    3.7320   -3.6200    0.0000 H   0  0  0  0  0  0  0  0  0  0  0  0
    4.3520   -3.0000    0.0000 H   0  0  0  0  0  0  0  0  0  0  0  0
    4.3860    3.0826    0.0000 H   0  0  0  0  0  0  0  0  0  0  0  0
    3.9875    2.3923    0.0000 H   0  0  0  0  0  0  0  0  0  0  0  0
  1  7  1  0  0  0  0
  2 13  1  0  0  0  0
  3 12  2  0  0  0  0
  4  5  1  0  0  0  0
  4 12  1  0  0  0  0
  4 17  1  0  0  0  0
  5  7  2  0  0  0  0
  5  8  1  0  0  0  0
  6  9  2  0  0  0  0
  6 10  1  0  0  0  0
  6 11  1  0  0  0  0
  7  9  1  0  0  0  0
  8 10  2  0  0  0  0
  8 14  1  0  0  0  0
  9 15  1  0  0  0  0
 10 16  1  0  0  0  0
 11 18  1  0  0  0  0
 11 19  1  0  0  0  0
 11 20  1  0  0  0  0
 12 13  1  0  0  0  0
 13 21  1  0  0  0  0
 13 22  1  0  0  0  0
M  END
> <PUBCHEM_COMPOUND_CID>
33695378

> <PUBCHEM_COMPOUND_CANONICALIZED>
1

> <PUBCHEM_CACTVS_COMPLEXITY>
187

> <PUBCHEM_CACTVS_HBOND_ACCEPTOR>
1

> <PUBCHEM_CACTVS_HBOND_DONOR>
1

> <PUBCHEM_CACTVS_ROTATABLE_BOND>
2

> <PUBCHEM_CACTVS_SUBSKEYS>
AAADccByIAAAGAAAAAAAAAAAAAAAAAAAAAAwAAAAAAAAAAABAAAAHgBQAAAB7AiBmAAywILAAACIAiVSUACCAAAhAgQIiAAAZKgoICLAkZGEIAhglADIyhcQgAAOCAAAEAAAAAgQAAAgAAAAEAAAAAAAAA==

> <PUBCHEM_IUPAC_OPENEYE_NAME>
2-bromo-N-(2-bromo-4-methyl-phenyl)acetamide

> <PUBCHEM_IUPAC_CAS_NAME>
2-bromo-N-(2-bromo-4-methylphenyl)acetamide

> <PUBCHEM_IUPAC_NAME>
2-bromo-N-(2-bromo-4-methylphenyl)acetamide

> <PUBCHEM_IUPAC_SYSTEMATIC_NAME>
2-bromanyl-N-(2-bromanyl-4-methyl-phenyl)ethanamide

> <PUBCHEM_IUPAC_TRADITIONAL_NAME>
2-bromo-N-(2-bromo-4-methyl-phenyl)acetamide

> <PUBCHEM_IUPAC_INCHI>
InChI=1S/C9H9Br2NO/c1-6-2-3-8(7(11)4-6)12-9(13)5-10/h2-4H,5H2,1H3,(H,12,13)

> <PUBCHEM_IUPAC_INCHIKEY>
BZWKKIBAXNLLOF-UHFFFAOYSA-N

> <PUBCHEM_XLOGP3>
3.3

> <PUBCHEM_EXACT_MASS>
306.903042

> <PUBCHEM_MOLECULAR_FORMULA>
C9H9Br2NO

> <PUBCHEM_MOLECULAR_WEIGHT>
306.98186

> <PUBCHEM_OPENEYE_CAN_SMILES>
CC1=CC(=C(C=C1)NC(=O)CBr)Br

> <PUBCHEM_OPENEYE_ISO_SMILES>
CC1=CC(=C(C=C1)NC(=O)CBr)Br

> <PUBCHEM_CACTVS_TPSA>
29.1

> <PUBCHEM_MONOISOTOPIC_WEIGHT>
304.905088

> <PUBCHEM_TOTAL_CHARGE>
0

> <PUBCHEM_HEAVY_ATOM_COUNT>
13

> <PUBCHEM_ATOM_DEF_STEREO_COUNT>
0

> <PUBCHEM_ATOM_UDEF_STEREO_COUNT>
0

> <PUBCHEM_BOND_DEF_STEREO_COUNT>
0

> <PUBCHEM_BOND_UDEF_STEREO_COUNT>
0

> <PUBCHEM_ISOTOPIC_ATOM_COUNT>
0

> <PUBCHEM_COMPONENT_COUNT>
1

> <PUBCHEM_CACTVS_TAUTO_COUNT>
3

> <PUBCHEM_COORDINATE_TYPE>
1
5
255

> <PUBCHEM_BONDANNOTATIONS>
5  7  8
5  8  8
6  10  8
6  9  8
7  9  8
8  10  8

$$$$
33695399
  -OEChem-06011308372D

 25 25  0     0  0  0  0  0  0999 V2000
    5.4641    3.0000    0.0000 Br  0  0  0  0  0  0  0  0  0  0  0  0
    5.4641    0.0000    0.0000 O   0  0  0  0  0  0  0  0  0  0  0  0
    3.7320    0.0000    0.0000 N   0  0  0  0  0  0  0  0  0  0  0  0
    3.7320   -1.0000    0.0000 C   0  0  0  0  0  0  0  0  0  0  0  0
    2.8660   -1.5000    0.0000 C   0  0  0  0  0  0  0  0  0  0  0  0
    4.5981    1.5000    0.0000 C   0  0  0  0  0  0  0  0  0  0  0  0
    4.5981   -1.5000    0.0000 C   0  0  0  0  0  0  0  0  0  0  0  0
    4.5981    0.5000    0.0000 C   0  0  0  0  0  0  0  0  0  0  0  0
    2.8660   -2.5000    0.0000 C   0  0  0  0  0  0  0  0  0  0  0  0
    2.0000   -1.0000    0.0000 C   0  0  0  0  0  0  0  0  0  0  0  0
    4.5981   -2.5000    0.0000 C   0  0  0  0  0  0  0  0  0  0  0  0
    3.7320   -3.0000    0.0000 C   0  0  0  0  0  0  0  0  0  0  0  0
    5.4641    2.0000    0.0000 C   0  0  0  0  0  0  0  0  0  0  0  0
    3.1951    0.3100    0.0000 H   0  0  0  0  0  0  0  0  0  0  0  0
    4.3860    2.0826    0.0000 H   0  0  0  0  0  0  0  0  0  0  0  0
    3.9875    1.3923    0.0000 H   0  0  0  0  0  0  0  0  0  0  0  0
    5.1350   -1.1900    0.0000 H   0  0  0  0  0  0  0  0  0  0  0  0
    2.3291   -2.8100    0.0000 H   0  0  0  0  0  0  0  0  0  0  0  0
    2.3100   -0.4631    0.0000 H   0  0  0  0  0  0  0  0  0  0  0  0
    1.4631   -0.6900    0.0000 H   0  0  0  0  0  0  0  0  0  0  0  0
    1.6900   -1.5369    0.0000 H   0  0  0  0  0  0  0  0  0  0  0  0
    5.1350   -2.8100    0.0000 H   0  0  0  0  0  0  0  0  0  0  0  0
    3.7320   -3.6200    0.0000 H   0  0  0  0  0  0  0  0  0  0  0  0
    5.6762    1.4174    0.0000 H   0  0  0  0  0  0  0  0  0  0  0  0
    6.0747    2.1077    0.0000 H   0  0  0  0  0  0  0  0  0  0  0  0
  1 13  1  0  0  0  0
  2  8  2  0  0  0  0
  3  4  1  0  0  0  0
  3  8  1  0  0  0  0
  3 14  1  0  0  0  0
  4  5  1  0  0  0  0
  4  7  2  0  0  0  0
  5  9  2  0  0  0  0
  5 10  1  0  0  0  0
  6  8  1  0  0  0  0
  6 13  1  0  0  0  0
  6 15  1  0  0  0  0
  6 16  1  0  0  0  0
  7 11  1  0  0  0  0
  7 17  1  0  0  0  0
  9 12  1  0  0  0  0
  9 18  1  0  0  0  0
 10 19  1  0  0  0  0
 10 20  1  0  0  0  0
 10 21  1  0  0  0  0
 11 12  2  0  0  0  0
 11 22  1  0  0  0  0
 12 23  1  0  0  0  0
 13 24  1  0  0  0  0
 13 25  1  0  0  0  0
M  END
> <PUBCHEM_COMPOUND_CID>
33695399

> <PUBCHEM_COMPOUND_CANONICALIZED>
1

> <PUBCHEM_CACTVS_COMPLEXITY>
172

> <PUBCHEM_CACTVS_HBOND_ACCEPTOR>
1

> <PUBCHEM_CACTVS_HBOND_DONOR>
1

> <PUBCHEM_CACTVS_ROTATABLE_BOND>
3

> <PUBCHEM_CACTVS_SUBSKEYS>
AAADccByIAAAEAAAAAAAAAAAAAAAAAAAAAAwAAAAAAAAAAABAAAAHgBQAAABTAiBmAAywILAAACIAiVSUACCAAAhAgAIiAEAZKgIICLAkZGEIAhglADIyAcQgAAOAAAAAAACAAAAAAAAAAQAAAAAAAAAAA==

> <PUBCHEM_IUPAC_OPENEYE_NAME>
3-bromo-N-(o-tolyl)propanamide

> <PUBCHEM_IUPAC_CAS_NAME>
3-bromo-N-(2-methylphenyl)propanamide

> <PUBCHEM_IUPAC_NAME>
3-bromo-N-(2-methylphenyl)propanamide

> <PUBCHEM_IUPAC_SYSTEMATIC_NAME>
3-bromanyl-N-(2-methylphenyl)propanamide

> <PUBCHEM_IUPAC_TRADITIONAL_NAME>
3-bromo-N-(o-tolyl)propionamide

> <PUBCHEM_IUPAC_INCHI>
InChI=1S/C10H12BrNO/c1-8-4-2-3-5-9(8)12-10(13)6-7-11/h2-5H,6-7H2,1H3,(H,12,13)

> <PUBCHEM_IUPAC_INCHIKEY>
UMJLYDOJIZASSO-UHFFFAOYSA-N

> <PUBCHEM_XLOGP3>
1.6

> <PUBCHEM_EXACT_MASS>
241.010226

> <PUBCHEM_MOLECULAR_FORMULA>
C10H12BrNO

> <PUBCHEM_MOLECULAR_WEIGHT>
242.11238

> <PUBCHEM_OPENEYE_CAN_SMILES>
CC1=CC=CC=C1NC(=O)CCBr

> <PUBCHEM_OPENEYE_ISO_SMILES>
CC1=CC=CC=C1NC(=O)CCBr

> <PUBCHEM_CACTVS_TPSA>
29.1

> <PUBCHEM_MONOISOTOPIC_WEIGHT>
241.010226

> <PUBCHEM_TOTAL_CHARGE>
0

> <PUBCHEM_HEAVY_ATOM_COUNT>
13

> <PUBCHEM_ATOM_DEF_STEREO_COUNT>
0

> <PUBCHEM_ATOM_UDEF_STEREO_COUNT>
0

> <PUBCHEM_BOND_DEF_STEREO_COUNT>
0

> <PUBCHEM_BOND_UDEF_STEREO_COUNT>
0

> <PUBCHEM_ISOTOPIC_ATOM_COUNT>
0

> <PUBCHEM_COMPONENT_COUNT>
1

> <PUBCHEM_CACTVS_TAUTO_COUNT>
3

> <PUBCHEM_COORDINATE_TYPE>
1
5
255

> <PUBCHEM_BONDANNOTATIONS>
11  12  8
4  5  8
4  7  8
5  9  8
7  11  8
9  12  8

$$$$
33697474
  -OEChem-06011308372D

 30 31  0     0  0  0  0  0  0999 V2000
    2.0000    1.1690    0.0000 Cl  0  0  0  0  0  0  0  0  0  0  0  0
    5.5443    0.9737    0.0000 N   0  0  0  0  0  0  0  0  0  0  0  0
    5.5443   -0.6357    0.0000 N   0  0  0  0  0  0  0  0  0  0  0  0
    7.6279   -0.6970    0.0000 C   0  0  0  0  0  0  0  0  0  0  0  0
    7.1279    0.1690    0.0000 C   0  0  0  0  0  0  0  0  0  0  0  0
    8.1279   -1.5630    0.0000 C   0  0  0  0  0  0  0  0  0  0  0  0
    8.4939   -0.1970    0.0000 C   0  0  0  0  0  0  0  0  0  0  0  0
    6.7619   -1.1970    0.0000 C   0  0  0  0  0  0  0  0  0  0  0  0
    6.1279    0.1690    0.0000 C   0  0  0  0  0  0  0  0  0  0  0  0
    4.5981    0.6690    0.0000 C   0  0  0  0  0  0  0  0  0  0  0  0
    4.5981   -0.3310    0.0000 C   0  0  0  0  0  0  0  0  0  0  0  0
    3.7320    1.1690    0.0000 C   0  0  0  0  0  0  0  0  0  0  0  0
    3.7320   -0.8310    0.0000 C   0  0  0  0  0  0  0  0  0  0  0  0
    2.8660    0.6690    0.0000 C   0  0  0  0  0  0  0  0  0  0  0  0
    2.8660   -0.3310    0.0000 C   0  0  0  0  0  0  0  0  0  0  0  0
    7.7105    0.3810    0.0000 H   0  0  0  0  0  0  0  0  0  0  0  0
    7.0202    0.7796    0.0000 H   0  0  0  0  0  0  0  0  0  0  0  0
    7.5910   -1.8730    0.0000 H   0  0  0  0  0  0  0  0  0  0  0  0
    8.4379   -2.1000    0.0000 H   0  0  0  0  0  0  0  0  0  0  0  0
    8.8039   -0.7340    0.0000 H   0  0  0  0  0  0  0  0  0  0  0  0
    9.0309    0.1130    0.0000 H   0  0  0  0  0  0  0  0  0  0  0  0
    8.1839    0.3399    0.0000 H   0  0  0  0  0  0  0  0  0  0  0  0
    6.4519   -0.6601    0.0000 H   0  0  0  0  0  0  0  0  0  0  0  0
    6.2249   -1.5070    0.0000 H   0  0  0  0  0  0  0  0  0  0  0  0
    7.0719   -1.7340    0.0000 H   0  0  0  0  0  0  0  0  0  0  0  0
    8.6648   -1.2530    0.0000 H   0  0  0  0  0  0  0  0  0  0  0  0
    5.7369    1.5630    0.0000 H   0  0  0  0  0  0  0  0  0  0  0  0
    3.7320    1.7890    0.0000 H   0  0  0  0  0  0  0  0  0  0  0  0
    3.7320   -1.4510    0.0000 H   0  0  0  0  0  0  0  0  0  0  0  0
    2.3291   -0.6410    0.0000 H   0  0  0  0  0  0  0  0  0  0  0  0
  1 14  1  0  0  0  0
  2  9  1  0  0  0  0
  2 10  1  0  0  0  0
  2 27  1  0  0  0  0
  3  9  2  0  0  0  0
  3 11  1  0  0  0  0
  4  5  1  0  0  0  0
  4  6  1  0  0  0  0
  4  7  1  0  0  0  0
  4  8  1  0  0  0  0
  5  9  1  0  0  0  0
  5 16  1  0  0  0  0
  5 17  1  0  0  0  0
  6 18  1  0  0  0  0
  6 19  1  0  0  0  0
  6 26  1  0  0  0  0
  7 20  1  0  0  0  0
  7 21  1  0  0  0  0
  7 22  1  0  0  0  0
  8 23  1  0  0  0  0
  8 24  1  0  0  0  0
  8 25  1  0  0  0  0
 10 11  2  0  0  0  0
 10 12  1  0  0  0  0
 11 13  1  0  0  0  0
 12 14  2  0  0  0  0
 12 28  1  0  0  0  0
 13 15  2  0  0  0  0
 13 29  1  0  0  0  0
 14 15  1  0  0  0  0
 15 30  1  0  0  0  0
M  END
> <PUBCHEM_COMPOUND_CID>
33697474

> <PUBCHEM_COMPOUND_CANONICALIZED>
1

> <PUBCHEM_CACTVS_COMPLEXITY>
224

> <PUBCHEM_CACTVS_HBOND_ACCEPTOR>
1

> <PUBCHEM_CACTVS_HBOND_DONOR>
1

> <PUBCHEM_CACTVS_ROTATABLE_BOND>
2

> <PUBCHEM_CACTVS_SUBSKEYS>
AAADccBzAAAEAAAAAAAAAAAAAAAAAWAAAAAwAAAAAAAAAFgB8AAAHAIQAAAADgqBFyAz0LbJkACgASZiZACCgC2hF6AJmSAwdpiIaKLBm5GUIAhokALIyCcQAAAJAABAAAIAACAAAIAABAAAQAAAAAAAAA==

> <PUBCHEM_IUPAC_OPENEYE_NAME>
6-chloro-2-(2,2-dimethylpropyl)-1H-benzimidazole

> <PUBCHEM_IUPAC_CAS_NAME>
6-chloro-2-(2,2-dimethylpropyl)-1H-benzimidazole

> <PUBCHEM_IUPAC_NAME>
6-chloro-2-(2,2-dimethylpropyl)-1H-benzimidazole

> <PUBCHEM_IUPAC_SYSTEMATIC_NAME>
6-chloranyl-2-(2,2-dimethylpropyl)-1H-benzimidazole

> <PUBCHEM_IUPAC_TRADITIONAL_NAME>
6-chloro-2-neopentyl-1H-benzimidazole

> <PUBCHEM_IUPAC_INCHI>
InChI=1S/C12H15ClN2/c1-12(2,3)7-11-14-9-5-4-8(13)6-10(9)15-11/h4-6H,7H2,1-3H3,(H,14,15)

> <PUBCHEM_IUPAC_INCHIKEY>
MNKBKCDKMPWLOX-UHFFFAOYSA-N

> <PUBCHEM_XLOGP3>
4.5

> <PUBCHEM_EXACT_MASS>
222.092376

> <PUBCHEM_MOLECULAR_FORMULA>
C12H15ClN2

> <PUBCHEM_MOLECULAR_WEIGHT>
222.7139

> <PUBCHEM_OPENEYE_CAN_SMILES>
CC(C)(C)CC1=NC2=C(N1)C=C(C=C2)Cl

> <PUBCHEM_OPENEYE_ISO_SMILES>
CC(C)(C)CC1=NC2=C(N1)C=C(C=C2)Cl

> <PUBCHEM_CACTVS_TPSA>
28.7

> <PUBCHEM_MONOISOTOPIC_WEIGHT>
222.092376

> <PUBCHEM_TOTAL_CHARGE>
0

> <PUBCHEM_HEAVY_ATOM_COUNT>
15

> <PUBCHEM_ATOM_DEF_STEREO_COUNT>
0

> <PUBCHEM_ATOM_UDEF_STEREO_COUNT>
0

> <PUBCHEM_BOND_DEF_STEREO_COUNT>
0

> <PUBCHEM_BOND_UDEF_STEREO_COUNT>
0

> <PUBCHEM_ISOTOPIC_ATOM_COUNT>
0

> <PUBCHEM_COMPONENT_COUNT>
1

> <PUBCHEM_CACTVS_TAUTO_COUNT>
3

> <PUBCHEM_COORDINATE_TYPE>
1
5
255

> <PUBCHEM_BONDANNOTATIONS>
10  11  8
10  12  8
11  13  8
12  14  8
13  15  8
14  15  8
2  10  8
2  9  8
3  11  8
3  9  8

$$$$
33699137
  -OEChem-06011308372D

 34 36  0     0  0  0  0  0  0999 V2000
    4.9889    0.4559    0.0000 N   0  0  0  0  0  0  0  0  0  0  0  0
    4.6783   -2.1041    0.0000 N   0  0  0  0  0  0  0  0  0  0  0  0
    5.9801    0.5884    0.0000 C   0  0  0  0  0  0  0  0  0  0  0  0
    4.2673    1.1482    0.0000 C   0  0  0  0  0  0  0  0  0  0  0  0
    6.4945    1.4459    0.0000 C   0  0  0  0  0  0  0  0  0  0  0  0
    4.3587    2.1440    0.0000 C   0  0  0  0  0  0  0  0  0  0  0  0
    6.1447    2.3828    0.0000 C   0  0  0  0  0  0  0  0  0  0  0  0
    5.1942    2.6934    0.0000 C   0  0  0  0  0  0  0  0  0  0  0  0
    4.6783   -0.4947    0.0000 C   0  0  0  0  0  0  0  0  0  0  0  0
    3.7320   -0.7994    0.0000 C   0  0  0  0  0  0  0  0  0  0  0  0
    5.2619   -1.2994    0.0000 C   0  0  0  0  0  0  0  0  0  0  0  0
    3.7320   -1.7994    0.0000 C   0  0  0  0  0  0  0  0  0  0  0  0
    2.8660   -0.2994    0.0000 C   0  0  0  0  0  0  0  0  0  0  0  0
    2.8660   -2.2994    0.0000 C   0  0  0  0  0  0  0  0  0  0  0  0
    2.0000   -0.7994    0.0000 C   0  0  0  0  0  0  0  0  0  0  0  0
    2.0000   -1.7994    0.0000 C   0  0  0  0  0  0  0  0  0  0  0  0
    3.6780    1.3408    0.0000 H   0  0  0  0  0  0  0  0  0  0  0  0
    5.9235   -0.0290    0.0000 H   0  0  0  0  0  0  0  0  0  0  0  0
    6.5694    0.3958    0.0000 H   0  0  0  0  0  0  0  0  0  0  0  0
    3.9484    0.6165    0.0000 H   0  0  0  0  0  0  0  0  0  0  0  0
    6.9419    1.0167    0.0000 H   0  0  0  0  0  0  0  0  0  0  0  0
    7.0125    1.7866    0.0000 H   0  0  0  0  0  0  0  0  0  0  0  0
    4.1418    2.7248    0.0000 H   0  0  0  0  0  0  0  0  0  0  0  0
    3.7442    2.0618    0.0000 H   0  0  0  0  0  0  0  0  0  0  0  0
    6.7593    2.4649    0.0000 H   0  0  0  0  0  0  0  0  0  0  0  0
    6.2014    3.0002    0.0000 H   0  0  0  0  0  0  0  0  0  0  0  0
    5.5131    3.2251    0.0000 H   0  0  0  0  0  0  0  0  0  0  0  0
    4.7468    3.1227    0.0000 H   0  0  0  0  0  0  0  0  0  0  0  0
    5.8819   -1.2994    0.0000 H   0  0  0  0  0  0  0  0  0  0  0  0
    4.8709   -2.6934    0.0000 H   0  0  0  0  0  0  0  0  0  0  0  0
    2.8660    0.3206    0.0000 H   0  0  0  0  0  0  0  0  0  0  0  0
    2.8660   -2.9194    0.0000 H   0  0  0  0  0  0  0  0  0  0  0  0
    1.4631   -0.4894    0.0000 H   0  0  0  0  0  0  0  0  0  0  0  0
    1.4631   -2.1094    0.0000 H   0  0  0  0  0  0  0  0  0  0  0  0
  1  3  1  0  0  0  0
  1  4  1  0  0  0  0
  1  9  1  0  0  0  0
  2 11  1  0  0  0  0
  2 12  1  0  0  0  0
  2 30  1  0  0  0  0
  3  5  1  0  0  0  0
  3 18  1  0  0  0  0
  3 19  1  0  0  0  0
  4  6  1  0  0  0  0
  4 17  1  0  0  0  0
  4 20  1  0  0  0  0
  5  7  1  0  0  0  0
  5 21  1  0  0  0  0
  5 22  1  0  0  0  0
  6  8  1  0  0  0  0
  6 23  1  0  0  0  0
  6 24  1  0  0  0  0
  7  8  1  0  0  0  0
  7 25  1  0  0  0  0
  7 26  1  0  0  0  0
  8 27  1  0  0  0  0
  8 28  1  0  0  0  0
  9 10  1  0  0  0  0
  9 11  2  0  0  0  0
 10 12  1  0  0  0  0
 10 13  2  0  0  0  0
 11 29  1  0  0  0  0
 12 14  2  0  0  0  0
 13 15  1  0  0  0  0
 13 31  1  0  0  0  0
 14 16  1  0  0  0  0
 14 32  1  0  0  0  0
 15 16  2  0  0  0  0
 15 33  1  0  0  0  0
 16 34  1  0  0  0  0
M  END
> <PUBCHEM_COMPOUND_CID>
33699137

> <PUBCHEM_COMPOUND_CANONICALIZED>
1

> <PUBCHEM_CACTVS_COMPLEXITY>
221

> <PUBCHEM_CACTVS_HBOND_ACCEPTOR>
1

> <PUBCHEM_CACTVS_HBOND_DONOR>
1

> <PUBCHEM_CACTVS_ROTATABLE_BOND>
1

> <PUBCHEM_CACTVS_SUBSKEYS>
AAADceBzAAAAAAAAAAAAAAAAAAAAAWAAAAAwAAAABYAAAFgB8AAAHAAQAAAADAjBHgQ8wPPJkACgAzRnRACCgCAxEiAI2aA4dJgIYOLA0dGUJAhgkADIyAcQgIAOAAAAAAACAAAAAAAAAAQAAAAAAAAAAA==

> <PUBCHEM_IUPAC_OPENEYE_NAME>
3-(azepan-1-yl)-1H-indole

> <PUBCHEM_IUPAC_CAS_NAME>
3-(1-azepanyl)-1H-indole

> <PUBCHEM_IUPAC_NAME>
3-(azepan-1-yl)-1H-indole

> <PUBCHEM_IUPAC_SYSTEMATIC_NAME>
3-(azepan-1-yl)-1H-indole

> <PUBCHEM_IUPAC_TRADITIONAL_NAME>
3-(azepan-1-yl)-1H-indole

> <PUBCHEM_IUPAC_INCHI>
InChI=1S/C14H18N2/c1-2-6-10-16(9-5-1)14-11-15-13-8-4-3-7-12(13)14/h3-4,7-8,11,15H,1-2,5-6,9-10H2

> <PUBCHEM_IUPAC_INCHIKEY>
SNOMCMFTODBZRR-UHFFFAOYSA-N

> <PUBCHEM_XLOGP3>
3.9

> <PUBCHEM_EXACT_MASS>
214.146999

> <PUBCHEM_MOLECULAR_FORMULA>
C14H18N2

> <PUBCHEM_MOLECULAR_WEIGHT>
214.30612

> <PUBCHEM_OPENEYE_CAN_SMILES>
C1CCCN(CC1)C2=CNC3=CC=CC=C32

> <PUBCHEM_OPENEYE_ISO_SMILES>
C1CCCN(CC1)C2=CNC3=CC=CC=C32

> <PUBCHEM_CACTVS_TPSA>
19

> <PUBCHEM_MONOISOTOPIC_WEIGHT>
214.146999

> <PUBCHEM_TOTAL_CHARGE>
0

> <PUBCHEM_HEAVY_ATOM_COUNT>
16

> <PUBCHEM_ATOM_DEF_STEREO_COUNT>
0

> <PUBCHEM_ATOM_UDEF_STEREO_COUNT>
0

> <PUBCHEM_BOND_DEF_STEREO_COUNT>
0

> <PUBCHEM_BOND_UDEF_STEREO_COUNT>
0

> <PUBCHEM_ISOTOPIC_ATOM_COUNT>
0

> <PUBCHEM_COMPONENT_COUNT>
1

> <PUBCHEM_CACTVS_TAUTO_COUNT>
1

> <PUBCHEM_COORDINATE_TYPE>
1
5
255

> <PUBCHEM_BONDANNOTATIONS>
10  12  8
10  13  8
12  14  8
13  15  8
14  16  8
15  16  8
2  11  8
2  12  8
9  10  8
9  11  8

$$$$
33699142
  -OEChem-06011308372D

 28 30  0     0  0  0  0  0  0999 V2000
    4.9889    0.7656    0.0000 N   0  0  0  0  0  0  0  0  0  0  0  0
    4.6783   -1.7944    0.0000 N   0  0  0  0  0  0  0  0  0  0  0  0
    5.9405    1.0730    0.0000 C   0  0  0  0  0  0  0  0  0  0  0  0
    4.4026    1.5757    0.0000 C   0  0  0  0  0  0  0  0  0  0  0  0
    5.9422    2.0730    0.0000 C   0  0  0  0  0  0  0  0  0  0  0  0
    4.9917    2.3837    0.0000 C   0  0  0  0  0  0  0  0  0  0  0  0
    4.6783   -0.1849    0.0000 C   0  0  0  0  0  0  0  0  0  0  0  0
    3.7320   -0.4896    0.0000 C   0  0  0  0  0  0  0  0  0  0  0  0
    5.2619   -0.9896    0.0000 C   0  0  0  0  0  0  0  0  0  0  0  0
    3.7320   -1.4896    0.0000 C   0  0  0  0  0  0  0  0  0  0  0  0
    2.8660    0.0104    0.0000 C   0  0  0  0  0  0  0  0  0  0  0  0
    2.8660   -1.9896    0.0000 C   0  0  0  0  0  0  0  0  0  0  0  0
    2.0000   -0.4896    0.0000 C   0  0  0  0  0  0  0  0  0  0  0  0
    2.0000   -1.4896    0.0000 C   0  0  0  0  0  0  0  0  0  0  0  0
    6.0684    0.4663    0.0000 H   0  0  0  0  0  0  0  0  0  0  0  0
    6.5572    1.1368    0.0000 H   0  0  0  0  0  0  0  0  0  0  0  0
    3.9425    1.9913    0.0000 H   0  0  0  0  0  0  0  0  0  0  0  0
    3.9411    1.1616    0.0000 H   0  0  0  0  0  0  0  0  0  0  0  0
    6.5587    2.0071    0.0000 H   0  0  0  0  0  0  0  0  0  0  0  0
    6.0722    2.6792    0.0000 H   0  0  0  0  0  0  0  0  0  0  0  0
    5.2449    2.9496    0.0000 H   0  0  0  0  0  0  0  0  0  0  0  0
    4.4553    2.6946    0.0000 H   0  0  0  0  0  0  0  0  0  0  0  0
    5.8819   -0.9896    0.0000 H   0  0  0  0  0  0  0  0  0  0  0  0
    4.8709   -2.3837    0.0000 H   0  0  0  0  0  0  0  0  0  0  0  0
    2.8660    0.6304    0.0000 H   0  0  0  0  0  0  0  0  0  0  0  0
    2.8660   -2.6096    0.0000 H   0  0  0  0  0  0  0  0  0  0  0  0
    1.4631   -0.1796    0.0000 H   0  0  0  0  0  0  0  0  0  0  0  0
    1.4631   -1.7996    0.0000 H   0  0  0  0  0  0  0  0  0  0  0  0
  1  3  1  0  0  0  0
  1  4  1  0  0  0  0
  1  7  1  0  0  0  0
  2  9  1  0  0  0  0
  2 10  1  0  0  0  0
  2 24  1  0  0  0  0
  3  5  1  0  0  0  0
  3 15  1  0  0  0  0
  3 16  1  0  0  0  0
  4  6  1  0  0  0  0
  4 17  1  0  0  0  0
  4 18  1  0  0  0  0
  5  6  1  0  0  0  0
  5 19  1  0  0  0  0
  5 20  1  0  0  0  0
  6 21  1  0  0  0  0
  6 22  1  0  0  0  0
  7  8  1  0  0  0  0
  7  9  2  0  0  0  0
  8 10  1  0  0  0  0
  8 11  2  0  0  0  0
  9 23  1  0  0  0  0
 10 12  2  0  0  0  0
 11 13  1  0  0  0  0
 11 25  1  0  0  0  0
 12 14  1  0  0  0  0
 12 26  1  0  0  0  0
 13 14  2  0  0  0  0
 13 27  1  0  0  0  0
 14 28  1  0  0  0  0
M  END
> <PUBCHEM_COMPOUND_CID>
33699142

> <PUBCHEM_COMPOUND_CANONICALIZED>
1

> <PUBCHEM_CACTVS_COMPLEXITY>
199

> <PUBCHEM_CACTVS_HBOND_ACCEPTOR>
1

> <PUBCHEM_CACTVS_HBOND_DONOR>
1

> <PUBCHEM_CACTVS_ROTATABLE_BOND>
1

> <PUBCHEM_CACTVS_SUBSKEYS>
AAADccBzAAAAAAAAAAAAAAAAAAAAAWLAAAAwAAAAAAAAAFgB8AAAHAAQAAAADAjBHgQ8wPPJkACgAzRnRACCgCAxEiAI2aA4dJgIYOLA0dGUJAhgkADIyAcQgIAOAAAAAAACAAAAAAAAAAQAAAAAAAAAAA==

> <PUBCHEM_IUPAC_OPENEYE_NAME>
3-pyrrolidin-1-yl-1H-indole

> <PUBCHEM_IUPAC_CAS_NAME>
3-(1-pyrrolidinyl)-1H-indole

> <PUBCHEM_IUPAC_NAME>
3-pyrrolidin-1-yl-1H-indole

> <PUBCHEM_IUPAC_SYSTEMATIC_NAME>
3-pyrrolidin-1-yl-1H-indole

> <PUBCHEM_IUPAC_TRADITIONAL_NAME>
3-pyrrolidino-1H-indole

> <PUBCHEM_IUPAC_INCHI>
InChI=1S/C12H14N2/c1-2-6-11-10(5-1)12(9-13-11)14-7-3-4-8-14/h1-2,5-6,9,13H,3-4,7-8H2

> <PUBCHEM_IUPAC_INCHIKEY>
GVAJESSAMRKOKJ-UHFFFAOYSA-N

> <PUBCHEM_XLOGP3>
3.2

> <PUBCHEM_EXACT_MASS>
186.115698

> <PUBCHEM_MOLECULAR_FORMULA>
C12H14N2

> <PUBCHEM_MOLECULAR_WEIGHT>
186.25296

> <PUBCHEM_OPENEYE_CAN_SMILES>
C1CCN(C1)C2=CNC3=CC=CC=C32

> <PUBCHEM_OPENEYE_ISO_SMILES>
C1CCN(C1)C2=CNC3=CC=CC=C32

> <PUBCHEM_CACTVS_TPSA>
19

> <PUBCHEM_MONOISOTOPIC_WEIGHT>
186.115698

> <PUBCHEM_TOTAL_CHARGE>
0

> <PUBCHEM_HEAVY_ATOM_COUNT>
14

> <PUBCHEM_ATOM_DEF_STEREO_COUNT>
0

> <PUBCHEM_ATOM_UDEF_STEREO_COUNT>
0

> <PUBCHEM_BOND_DEF_STEREO_COUNT>
0

> <PUBCHEM_BOND_UDEF_STEREO_COUNT>
0

> <PUBCHEM_ISOTOPIC_ATOM_COUNT>
0

> <PUBCHEM_COMPONENT_COUNT>
1

> <PUBCHEM_CACTVS_TAUTO_COUNT>
1

> <PUBCHEM_COORDINATE_TYPE>
1
5
255

> <PUBCHEM_BONDANNOTATIONS>
10  12  8
11  13  8
12  14  8
13  14  8
2  10  8
2  9  8
7  8  8
7  9  8
8  10  8
8  11  8

$$$$
