15976788
  -OEChem-12041210202D

 44 47  0     1  0  0  0  0  0999 V2000
    5.9742    1.0410    0.0000 N   0  0  3  0  0  0  0  0  0  0  0  0
    5.5301   -0.4499    0.0000 C   0  0  1  0  0  0  0  0  0  0  0  0
    6.3961    0.0501    0.0000 C   0  0  2  0  0  0  0  0  0  0  0  0
    6.3961    1.0501    0.0000 C   0  0  2  0  0  0  0  0  0  0  0  0
    5.3270   -0.0800    0.0000 C   0  0  0  0  0  0  0  0  0  0  0  0
    5.5141   -1.4914    0.0000 C   0  0  0  0  0  0  0  0  0  0  0  0
    7.3062   -0.4568    0.0000 C   0  0  0  0  0  0  0  0  0  0  0  0
    4.6641    0.0501    0.0000 C   0  0  0  0  0  0  0  0  0  0  0  0
    5.5301    1.5501    0.0000 C   0  0  0  0  0  0  0  0  0  0  0  0
    5.2434    0.7156    0.0000 C   0  0  0  0  0  0  0  0  0  0  0  0
    6.4121   -2.0192    0.0000 C   0  0  0  0  0  0  0  0  0  0  0  0
    7.3142   -1.4984    0.0000 C   0  0  0  0  0  0  0  0  0  0  0  0
    4.6641    1.0501    0.0000 C   0  0  0  0  0  0  0  0  0  0  0  0
    3.7702   -0.4846    0.0000 C   0  0  0  0  0  0  0  0  0  0  0  0
    6.1822    2.0192    0.0000 C   0  0  0  0  0  0  0  0  0  0  0  0
    3.7702    1.5848    0.0000 C   0  0  0  0  0  0  0  0  0  0  0  0
    2.8641    0.0293    0.0000 C   0  0  0  0  0  0  0  0  0  0  0  0
    2.8641    1.0709    0.0000 C   0  0  0  0  0  0  0  0  0  0  0  0
    2.0000   -0.4741    0.0000 C   0  0  0  0  0  0  0  0  0  0  0  0
    7.1323    0.4751    0.0000 H   0  0  0  0  0  0  0  0  0  0  0  0
    6.8212    1.7862    0.0000 H   0  0  0  0  0  0  0  0  0  0  0  0
    4.7323    0.0952    0.0000 H   0  0  0  0  0  0  0  0  0  0  0  0
    5.9187    0.1053    0.0000 H   0  0  0  0  0  0  0  0  0  0  0  0
    4.9049   -1.3759    0.0000 H   0  0  0  0  0  0  0  0  0  0  0  0
    5.2960   -2.0718    0.0000 H   0  0  0  0  0  0  0  0  0  0  0  0
    7.9178   -0.5581    0.0000 H   0  0  0  0  0  0  0  0  0  0  0  0
    7.5107    0.1285    0.0000 H   0  0  0  0  0  0  0  0  0  0  0  0
    5.9286    2.0250    0.0000 H   0  0  0  0  0  0  0  0  0  0  0  0
    5.1316    2.0250    0.0000 H   0  0  0  0  0  0  0  0  0  0  0  0
    5.0518    1.3053    0.0000 H   0  0  0  0  0  0  0  0  0  0  0  0
    4.6370    0.5867    0.0000 H   0  0  0  0  0  0  0  0  0  0  0  0
    6.0111   -2.4921    0.0000 H   0  0  0  0  0  0  0  0  0  0  0  0
    6.8094   -2.4951    0.0000 H   0  0  0  0  0  0  0  0  0  0  0  0
    7.5277   -2.0804    0.0000 H   0  0  0  0  0  0  0  0  0  0  0  0
    7.9242   -1.3876    0.0000 H   0  0  0  0  0  0  0  0  0  0  0  0
    3.7773   -1.1045    0.0000 H   0  0  0  0  0  0  0  0  0  0  0  0
    6.7886    1.8903    0.0000 H   0  0  0  0  0  0  0  0  0  0  0  0
    6.3111    2.6256    0.0000 H   0  0  0  0  0  0  0  0  0  0  0  0
    5.5757    2.1481    0.0000 H   0  0  0  0  0  0  0  0  0  0  0  0
    3.7773    2.2047    0.0000 H   0  0  0  0  0  0  0  0  0  0  0  0
    2.3284    1.3830    0.0000 H   0  0  0  0  0  0  0  0  0  0  0  0
    1.6879    0.0617    0.0000 H   0  0  0  0  0  0  0  0  0  0  0  0
    1.4643   -0.7861    0.0000 H   0  0  0  0  0  0  0  0  0  0  0  0
    2.3121   -1.0098    0.0000 H   0  0  0  0  0  0  0  0  0  0  0  0
  1  4  1  0  0  0  0
  1 10  1  0  0  0  0
  1 15  1  0  0  0  0
  2  3  1  0  0  0  0
  2  5  1  0  0  0  0
  2  6  1  6  0  0  0
  2  8  1  0  0  0  0
  3  4  1  0  0  0  0
  3  7  1  0  0  0  0
  3 20  1  1  0  0  0
  4  9  1  0  0  0  0
  4 21  1  6  0  0  0
  5 10  1  0  0  0  0
  5 22  1  0  0  0  0
  5 23  1  0  0  0  0
  6 11  1  0  0  0  0
  6 24  1  0  0  0  0
  6 25  1  0  0  0  0
  7 12  1  0  0  0  0
  7 26  1  0  0  0  0
  7 27  1  0  0  0  0
  8 13  2  0  0  0  0
  8 14  1  0  0  0  0
  9 13  1  0  0  0  0
  9 28  1  0  0  0  0
  9 29  1  0  0  0  0
 10 30  1  0  0  0  0
 10 31  1  0  0  0  0
 11 12  1  0  0  0  0
 11 32  1  0  0  0  0
 11 33  1  0  0  0  0
 12 34  1  0  0  0  0
 12 35  1  0  0  0  0
 13 16  1  0  0  0  0
 14 17  2  0  0  0  0
 14 36  1  0  0  0  0
 15 37  1  0  0  0  0
 15 38  1  0  0  0  0
 15 39  1  0  0  0  0
 16 18  2  0  0  0  0
 16 40  1  0  0  0  0
 17 18  1  0  0  0  0
 17 19  1  0  0  0  0
 18 41  1  0  0  0  0
 19 42  1  0  0  0  0
 19 43  1  0  0  0  0
 19 44  1  0  0  0  0
M  END
> <PUBCHEM_COMPOUND_CID>
15976788

> <PUBCHEM_COMPOUND_CANONICALIZED>
1

> <PUBCHEM_CACTVS_COMPLEXITY>
352

> <PUBCHEM_CACTVS_HBOND_ACCEPTOR>
1

> <PUBCHEM_CACTVS_HBOND_DONOR>
0

> <PUBCHEM_CACTVS_ROTATABLE_BOND>
0

> <PUBCHEM_CACTVS_SUBSKEYS>
AAADceB6AAAAAAAAAAAAAAAAAAAAAAAAAAA8YMEAAAAWAADxAAAAHAAAAAAADyjBGAQyAIMAAACAAiBCAAACAAAgAAAIiAAIAIgIICKAkRGEIAAggACIiAcQgMAPwAACAAAQAACQAASAACQAAAAAAAAAAA==

> <PUBCHEM_IUPAC_INCHI>
InChI=1S/C18H25N/c1-13-6-7-14-12-17-15-5-3-4-8-18(15,16(14)11-13)9-10-19(17)2/h6-7,11,15,17H,3-5,8-10,12H2,1-2H3/t15-,17-,18-/m0/s1

> <PUBCHEM_IUPAC_INCHIKEY>
KBEZZLAAKIIPFK-SZMVWBNQSA-N

> <PUBCHEM_XLOGP3>
3.8

> <PUBCHEM_EXACT_MASS>
255.1987

> <PUBCHEM_MOLECULAR_FORMULA>
C18H25N

> <PUBCHEM_MOLECULAR_WEIGHT>
255.3978

> <PUBCHEM_OPENEYE_CAN_SMILES>
CC1=CC2=C(CC3C4C2(CCCC4)CCN3C)C=C1

> <PUBCHEM_OPENEYE_ISO_SMILES>
CC1=CC2=C(C[C@H]3[C@H]4[C@]2(CCCC4)CCN3C)C=C1

> <PUBCHEM_CACTVS_TPSA>
3.2

> <PUBCHEM_MONOISOTOPIC_WEIGHT>
255.1987

> <PUBCHEM_TOTAL_CHARGE>
0

> <PUBCHEM_HEAVY_ATOM_COUNT>
19

> <PUBCHEM_ATOM_DEF_STEREO_COUNT>
3

> <PUBCHEM_ATOM_UDEF_STEREO_COUNT>
0

> <PUBCHEM_BOND_DEF_STEREO_COUNT>
0

> <PUBCHEM_BOND_UDEF_STEREO_COUNT>
0

> <PUBCHEM_ISOTOPIC_ATOM_COUNT>
0

> <PUBCHEM_COMPONENT_COUNT>
1

> <PUBCHEM_CACTVS_TAUTO_COUNT>
1

> <PUBCHEM_COORDINATE_TYPE>
1
5
255

> <PUBCHEM_BONDANNOTATIONS>
13  16  8
14  17  8
16  18  8
17  18  8
2  6  6
3  20  5
4  21  6
8  13  8
8  14  8

$$$$
15981558
  -OEChem-12041210212D

 50 51  0     1  0  0  0  0  0999 V2000
    5.0298   -0.0341    0.0000 O   0  0  0  0  0  0  0  0  0  0  0  0
    3.1330   -1.7942    0.0000 O   0  0  0  0  0  0  0  0  0  0  0  0
    2.4608    0.2749    0.0000 O   0  0  0  0  0  0  0  0  0  0  0  0
    6.3031   -1.6897    0.0000 O   0  0  0  0  0  0  0  0  0  0  0  0
    6.4842   -3.4122    0.0000 O   0  0  0  0  0  0  0  0  0  0  0  0
    6.3031    3.7970    0.0000 O   0  0  0  0  0  0  0  0  0  0  0  0
   11.6378   -4.6122    0.0000 O   0  0  0  0  0  0  0  0  0  0  0  0
   11.4568   -2.8896    0.0000 O   0  0  0  0  0  0  0  0  0  0  0  0
    4.2208    1.5536    0.0000 N   0  0  0  0  0  0  0  0  0  0  0  0
    5.0298    2.1414    0.0000 N   0  0  0  0  0  0  0  0  0  0  0  0
    3.7208    3.0925    0.0000 N   0  0  0  0  0  0  0  0  0  0  0  0
    4.9019    4.8151    0.0000 N   0  0  0  0  0  0  0  0  0  0  0  0
    3.7208   -0.9852    0.0000 C   0  0  1  0  0  0  0  0  0  0  0  0
    3.4118   -0.0341    0.0000 C   0  0  2  0  0  0  0  0  0  0  0  0
    4.7208   -0.9852    0.0000 C   0  0  1  0  0  0  0  0  0  0  0  0
    4.2208    0.5537    0.0000 C   0  0  1  0  0  0  0  0  0  0  0  0
    5.3086   -1.7942    0.0000 C   0  0  0  0  0  0  0  0  0  0  0  0
    3.4118    2.1414    0.0000 C   0  0  0  0  0  0  0  0  0  0  0  0
    6.8909   -2.4987    0.0000 C   0  0  0  0  0  0  0  0  0  0  0  0
    4.7208    3.0925    0.0000 C   0  0  0  0  0  0  0  0  0  0  0  0
    7.8854   -2.3942    0.0000 C   0  0  0  0  0  0  0  0  0  0  0  0
    8.4732   -3.2032    0.0000 C   0  0  0  0  0  0  0  0  0  0  0  0
    9.4677   -3.0986    0.0000 C   0  0  0  0  0  0  0  0  0  0  0  0
   10.0555   -3.9077    0.0000 C   0  0  0  0  0  0  0  0  0  0  0  0
    5.3086    3.9015    0.0000 C   0  0  0  0  0  0  0  0  0  0  0  0
   11.0501   -3.8031    0.0000 C   0  0  0  0  0  0  0  0  0  0  0  0
   12.6324   -4.5076    0.0000 C   0  0  0  0  0  0  0  0  0  0  0  0
   13.2201   -5.3166    0.0000 C   0  0  0  0  0  0  0  0  0  0  0  0
    3.1085   -0.8882    0.0000 H   0  0  0  0  0  0  0  0  0  0  0  0
    2.9734   -0.4725    0.0000 H   0  0  0  0  0  0  0  0  0  0  0  0
    5.3332   -0.8882    0.0000 H   0  0  0  0  0  0  0  0  0  0  0  0
    3.6684    0.8351    0.0000 H   0  0  0  0  0  0  0  0  0  0  0  0
    4.7514   -2.0660    0.0000 H   0  0  0  0  0  0  0  0  0  0  0  0
    5.4795   -2.3902    0.0000 H   0  0  0  0  0  0  0  0  0  0  0  0
    3.3852   -2.3606    0.0000 H   0  0  0  0  0  0  0  0  0  0  0  0
    2.0000   -0.1400    0.0000 H   0  0  0  0  0  0  0  0  0  0  0  0
    2.8222    1.9498    0.0000 H   0  0  0  0  0  0  0  0  0  0  0  0
    8.4427   -2.1224    0.0000 H   0  0  0  0  0  0  0  0  0  0  0  0
    7.7145   -1.7982    0.0000 H   0  0  0  0  0  0  0  0  0  0  0  0
    7.9160   -3.4750    0.0000 H   0  0  0  0  0  0  0  0  0  0  0  0
    8.6441   -3.7992    0.0000 H   0  0  0  0  0  0  0  0  0  0  0  0
   10.0250   -2.8269    0.0000 H   0  0  0  0  0  0  0  0  0  0  0  0
    9.2968   -2.5027    0.0000 H   0  0  0  0  0  0  0  0  0  0  0  0
    9.4983   -4.1795    0.0000 H   0  0  0  0  0  0  0  0  0  0  0  0
   10.2264   -4.5037    0.0000 H   0  0  0  0  0  0  0  0  0  0  0  0
    5.2663    5.3166    0.0000 H   0  0  0  0  0  0  0  0  0  0  0  0
    4.2853    4.8799    0.0000 H   0  0  0  0  0  0  0  0  0  0  0  0
   12.8845   -3.9412    0.0000 H   0  0  0  0  0  0  0  0  0  0  0  0
   12.9680   -5.8830    0.0000 H   0  0  0  0  0  0  0  0  0  0  0  0
   13.8367   -5.2518    0.0000 H   0  0  0  0  0  0  0  0  0  0  0  0
  1 15  1  0  0  0  0
  1 16  1  0  0  0  0
 13  2  1  1  0  0  0
  2 35  1  0  0  0  0
 14  3  1  1  0  0  0
  3 36  1  0  0  0  0
  4 17  1  0  0  0  0
  4 19  1  0  0  0  0
  5 19  2  0  0  0  0
  6 25  2  0  0  0  0
  7 26  1  0  0  0  0
  7 27  1  0  0  0  0
  8 26  2  0  0  0  0
  9 10  1  0  0  0  0
 16  9  1  6  0  0  0
  9 18  1  0  0  0  0
 10 20  2  0  0  0  0
 11 18  2  0  0  0  0
 11 20  1  0  0  0  0
 12 25  1  0  0  0  0
 12 46  1  0  0  0  0
 12 47  1  0  0  0  0
 13 14  1  0  0  0  0
 13 15  1  0  0  0  0
 13 29  1  0  0  0  0
 14 16  1  0  0  0  0
 14 30  1  0  0  0  0
 15 17  1  6  0  0  0
 15 31  1  0  0  0  0
 16 32  1  0  0  0  0
 17 33  1  0  0  0  0
 17 34  1  0  0  0  0
 18 37  1  0  0  0  0
 19 21  1  0  0  0  0
 20 25  1  0  0  0  0
 21 22  1  0  0  0  0
 21 38  1  0  0  0  0
 21 39  1  0  0  0  0
 22 23  1  0  0  0  0
 22 40  1  0  0  0  0
 22 41  1  0  0  0  0
 23 24  1  0  0  0  0
 23 42  1  0  0  0  0
 23 43  1  0  0  0  0
 24 26  1  0  0  0  0
 24 44  1  0  0  0  0
 24 45  1  0  0  0  0
 27 28  2  0  0  0  0
 27 48  1  0  0  0  0
 28 49  1  0  0  0  0
 28 50  1  0  0  0  0
M  END
> <PUBCHEM_COMPOUND_CID>
15981558

> <PUBCHEM_COMPOUND_CANONICALIZED>
1

> <PUBCHEM_CACTVS_COMPLEXITY>
589

> <PUBCHEM_CACTVS_HBOND_ACCEPTOR>
10

> <PUBCHEM_CACTVS_HBOND_DONOR>
3

> <PUBCHEM_CACTVS_ROTATABLE_BOND>
12

> <PUBCHEM_CACTVS_SUBSKEYS>
AAADceB7vAAAAAAAAAAAAAAAAAAAAWJAAAAAAAAAAAAAAAABgAAAHgAYCAAACBThgwYFGAZIFgCqAAOzPAAQiAsSgKAdQAGIAACDWBIAiCAeQAAPCAITAAH4eAoAAAAAAAAAAAAAAAAAAAAAAAAAAAAAAA==

> <PUBCHEM_IUPAC_OPENEYE_NAME>
O1-[[(2R,3S,4R,5R)-5-(3-carbamoyl-1,2,4-triazol-1-yl)-3,4-dihydroxy-tetrahydrofuran-2-yl]methyl] O6-vinyl hexanedioate

> <PUBCHEM_IUPAC_CAS_NAME>
hexanedioic acid O1-[[(2R,3S,4R,5R)-5-(3-carbamoyl-1,2,4-triazol-1-yl)-3,4-dihydroxy-2-oxolanyl]methyl] ester O6-ethenyl ester

> <PUBCHEM_IUPAC_NAME>
1-O-[[(2R,3S,4R,5R)-5-(3-carbamoyl-1,2,4-triazol-1-yl)-3,4-dihydroxyoxolan-2-yl]methyl] 6-O-ethenyl hexanedioate

> <PUBCHEM_IUPAC_SYSTEMATIC_NAME>
O1-[[(2R,3S,4R,5R)-5-(3-aminocarbonyl-1,2,4-triazol-1-yl)-3,4-bis(oxidanyl)oxolan-2-yl]methyl] O6-ethenyl hexanedioate

> <PUBCHEM_IUPAC_TRADITIONAL_NAME>
adipic acid O1-[[(2R,3S,4R,5R)-5-(3-carbamoyl-1,2,4-triazol-1-yl)-3,4-dihydroxy-tetrahydrofuran-2-yl]methyl] ester O6-vinyl ester

> <PUBCHEM_IUPAC_INCHI>
InChI=1S/C16H22N4O8/c1-2-26-10(21)5-3-4-6-11(22)27-7-9-12(23)13(24)16(28-9)20-8-18-15(19-20)14(17)25/h2,8-9,12-13,16,23-24H,1,3-7H2,(H2,17,25)/t9-,12-,13-,16-/m1/s1

> <PUBCHEM_IUPAC_INCHIKEY>
GPISTHZZCPFLEY-RVXWVPLUSA-N

> <PUBCHEM_XLOGP3>
-0.9

> <PUBCHEM_EXACT_MASS>
398.143764

> <PUBCHEM_MOLECULAR_FORMULA>
C16H22N4O8

> <PUBCHEM_MOLECULAR_WEIGHT>
398.36788

> <PUBCHEM_OPENEYE_CAN_SMILES>
C=COC(=O)CCCCC(=O)OCC1C(C(C(O1)N2C=NC(=N2)C(=O)N)O)O

> <PUBCHEM_OPENEYE_ISO_SMILES>
C=COC(=O)CCCCC(=O)OC[C@@H]1[C@H]([C@H]([C@@H](O1)N2C=NC(=N2)C(=O)N)O)O

> <PUBCHEM_CACTVS_TPSA>
176

> <PUBCHEM_MONOISOTOPIC_WEIGHT>
398.143764

> <PUBCHEM_TOTAL_CHARGE>
0

> <PUBCHEM_HEAVY_ATOM_COUNT>
28

> <PUBCHEM_ATOM_DEF_STEREO_COUNT>
4

> <PUBCHEM_ATOM_UDEF_STEREO_COUNT>
0

> <PUBCHEM_BOND_DEF_STEREO_COUNT>
0

> <PUBCHEM_BOND_UDEF_STEREO_COUNT>
0

> <PUBCHEM_ISOTOPIC_ATOM_COUNT>
0

> <PUBCHEM_COMPONENT_COUNT>
1

> <PUBCHEM_CACTVS_TAUTO_COUNT>
2

> <PUBCHEM_COORDINATE_TYPE>
1
5
255

> <PUBCHEM_BONDANNOTATIONS>
10  20  8
11  18  8
11  20  8
15  17  6
13  2  5
14  3  5
9  10  8
16  9  6
9  18  8

$$$$
15981606
  -OEChem-12041210212D

 26 27  0     0  0  0  0  0  0999 V2000
    7.2566    1.7644    0.0000 O   0  0  0  0  0  0  0  0  0  0  0  0
    4.6783   -0.5490    0.0000 N   0  0  0  0  0  0  0  0  0  0  0  0
    4.9889    0.4015    0.0000 C   0  0  0  0  0  0  0  0  0  0  0  0
    3.7320   -0.8538    0.0000 C   0  0  0  0  0  0  0  0  0  0  0  0
    5.9674    0.6077    0.0000 C   0  0  0  0  0  0  0  0  0  0  0  0
    3.7320   -1.8538    0.0000 C   0  0  0  0  0  0  0  0  0  0  0  0
    5.2619   -1.3538    0.0000 C   0  0  0  0  0  0  0  0  0  0  0  0
    4.6783   -2.1585    0.0000 C   0  0  0  0  0  0  0  0  0  0  0  0
    2.8660   -0.3538    0.0000 C   0  0  0  0  0  0  0  0  0  0  0  0
    6.2781    1.5582    0.0000 C   0  0  0  0  0  0  0  0  0  0  0  0
    2.8660   -2.3538    0.0000 C   0  0  0  0  0  0  0  0  0  0  0  0
    2.0000   -0.8538    0.0000 C   0  0  0  0  0  0  0  0  0  0  0  0
    2.0000   -1.8538    0.0000 C   0  0  0  0  0  0  0  0  0  0  0  0
    4.9684    1.0211    0.0000 H   0  0  0  0  0  0  0  0  0  0  0  0
    4.3751    0.4888    0.0000 H   0  0  0  0  0  0  0  0  0  0  0  0
    5.9880   -0.0120    0.0000 H   0  0  0  0  0  0  0  0  0  0  0  0
    6.5812    0.5204    0.0000 H   0  0  0  0  0  0  0  0  0  0  0  0
    5.8819   -1.3538    0.0000 H   0  0  0  0  0  0  0  0  0  0  0  0
    4.8709   -2.7478    0.0000 H   0  0  0  0  0  0  0  0  0  0  0  0
    2.8660    0.2662    0.0000 H   0  0  0  0  0  0  0  0  0  0  0  0
    6.2575    2.1779    0.0000 H   0  0  0  0  0  0  0  0  0  0  0  0
    5.6643    1.6456    0.0000 H   0  0  0  0  0  0  0  0  0  0  0  0
    2.8660   -2.9738    0.0000 H   0  0  0  0  0  0  0  0  0  0  0  0
    1.4631   -0.5438    0.0000 H   0  0  0  0  0  0  0  0  0  0  0  0
    1.4631   -2.1638    0.0000 H   0  0  0  0  0  0  0  0  0  0  0  0
    7.4492    2.3538    0.0000 H   0  0  0  0  0  0  0  0  0  0  0  0
  1 10  1  0  0  0  0
  1 26  1  0  0  0  0
  2  3  1  0  0  0  0
  2  4  1  0  0  0  0
  2  7  1  0  0  0  0
  3  5  1  0  0  0  0
  3 14  1  0  0  0  0
  3 15  1  0  0  0  0
  4  6  1  0  0  0  0
  4  9  2  0  0  0  0
  5 10  1  0  0  0  0
  5 16  1  0  0  0  0
  5 17  1  0  0  0  0
  6  8  1  0  0  0  0
  6 11  2  0  0  0  0
  7  8  2  0  0  0  0
  7 18  1  0  0  0  0
  8 19  1  0  0  0  0
  9 12  1  0  0  0  0
  9 20  1  0  0  0  0
 10 21  1  0  0  0  0
 10 22  1  0  0  0  0
 11 13  1  0  0  0  0
 11 23  1  0  0  0  0
 12 13  2  0  0  0  0
 12 24  1  0  0  0  0
 13 25  1  0  0  0  0
M  END
> <PUBCHEM_COMPOUND_CID>
15981606

> <PUBCHEM_COMPOUND_CANONICALIZED>
1

> <PUBCHEM_CACTVS_COMPLEXITY>
160

> <PUBCHEM_CACTVS_HBOND_ACCEPTOR>
1

> <PUBCHEM_CACTVS_HBOND_DONOR>
1

> <PUBCHEM_CACTVS_ROTATABLE_BOND>
3

> <PUBCHEM_CACTVS_SUBSKEYS>
AAADccByIAAAAAAAAAAAAAAAAAAAAWAAAAAwAAAAAAAAAFgB8AAAHgAACAAADAjhngY8wPMMEgCgAzRnRACCgCAxAiAI2CA4ZJgIMOLAkZGEYAhigADIyAcQgIAOAAAAAAACAAAAAAAAAAQAAAAAAAAAAA==

> <PUBCHEM_IUPAC_OPENEYE_NAME>
3-indol-1-ylpropan-1-ol

> <PUBCHEM_IUPAC_CAS_NAME>
3-(1-indolyl)-1-propanol

> <PUBCHEM_IUPAC_NAME>
3-indol-1-ylpropan-1-ol

> <PUBCHEM_IUPAC_SYSTEMATIC_NAME>
3-indol-1-ylpropan-1-ol

> <PUBCHEM_IUPAC_TRADITIONAL_NAME>
3-indol-1-ylpropan-1-ol

> <PUBCHEM_IUPAC_INCHI>
InChI=1S/C11H13NO/c13-9-3-7-12-8-6-10-4-1-2-5-11(10)12/h1-2,4-6,8,13H,3,7,9H2

> <PUBCHEM_IUPAC_INCHIKEY>
BOXDPPLUKGIQLV-UHFFFAOYSA-N

> <PUBCHEM_XLOGP3>
2.3

> <PUBCHEM_EXACT_MASS>
175.099714

> <PUBCHEM_MOLECULAR_FORMULA>
C11H13NO

> <PUBCHEM_MOLECULAR_WEIGHT>
175.22702

> <PUBCHEM_OPENEYE_CAN_SMILES>
C1=CC=C2C(=C1)C=CN2CCCO

> <PUBCHEM_OPENEYE_ISO_SMILES>
C1=CC=C2C(=C1)C=CN2CCCO

> <PUBCHEM_CACTVS_TPSA>
25.2

> <PUBCHEM_MONOISOTOPIC_WEIGHT>
175.099714

> <PUBCHEM_TOTAL_CHARGE>
0

> <PUBCHEM_HEAVY_ATOM_COUNT>
13

> <PUBCHEM_ATOM_DEF_STEREO_COUNT>
0

> <PUBCHEM_ATOM_UDEF_STEREO_COUNT>
0

> <PUBCHEM_BOND_DEF_STEREO_COUNT>
0

> <PUBCHEM_BOND_UDEF_STEREO_COUNT>
0

> <PUBCHEM_ISOTOPIC_ATOM_COUNT>
0

> <PUBCHEM_COMPONENT_COUNT>
1

> <PUBCHEM_CACTVS_TAUTO_COUNT>
1

> <PUBCHEM_COORDINATE_TYPE>
1
5
255

> <PUBCHEM_BONDANNOTATIONS>
11  13  8
12  13  8
2  4  8
2  7  8
4  6  8
4  9  8
6  11  8
6  8  8
7  8  8
9  12  8

$$$$
15982087
  -OEChem-12041210212D

 26 27  0     0  0  0  0  0  0999 V2000
    5.1350    3.0000    0.0000 Br  0  0  0  0  0  0  0  0  0  0  0  0
    3.4030    0.0000    0.0000 O   0  0  0  0  0  0  0  0  0  0  0  0
    2.5369   -1.5000    0.0000 N   0  0  0  0  0  0  0  0  0  0  0  0
    5.1350   -1.0000    0.0000 C   0  0  0  0  0  0  0  0  0  0  0  0
    5.1350    0.0000    0.0000 C   0  0  0  0  0  0  0  0  0  0  0  0
    4.2690   -1.5000    0.0000 C   0  0  0  0  0  0  0  0  0  0  0  0
    6.0010   -1.5000    0.0000 C   0  0  0  0  0  0  0  0  0  0  0  0
    6.0010    0.5000    0.0000 C   0  0  0  0  0  0  0  0  0  0  0  0
    4.2690    0.5000    0.0000 C   0  0  0  0  0  0  0  0  0  0  0  0
    4.2690   -2.5000    0.0000 C   0  0  0  0  0  0  0  0  0  0  0  0
    6.0010   -2.5000    0.0000 C   0  0  0  0  0  0  0  0  0  0  0  0
    5.1350   -3.0000    0.0000 C   0  0  0  0  0  0  0  0  0  0  0  0
    6.0010    1.5000    0.0000 C   0  0  0  0  0  0  0  0  0  0  0  0
    4.2690    1.5000    0.0000 C   0  0  0  0  0  0  0  0  0  0  0  0
    3.4030   -1.0000    0.0000 C   0  0  0  0  0  0  0  0  0  0  0  0
    5.1350    2.0000    0.0000 C   0  0  0  0  0  0  0  0  0  0  0  0
    6.5380   -1.1900    0.0000 H   0  0  0  0  0  0  0  0  0  0  0  0
    6.5380    0.1900    0.0000 H   0  0  0  0  0  0  0  0  0  0  0  0
    3.7320    0.1900    0.0000 H   0  0  0  0  0  0  0  0  0  0  0  0
    3.7320   -2.8100    0.0000 H   0  0  0  0  0  0  0  0  0  0  0  0
    6.5380   -2.8100    0.0000 H   0  0  0  0  0  0  0  0  0  0  0  0
    5.1350   -3.6200    0.0000 H   0  0  0  0  0  0  0  0  0  0  0  0
    6.5380    1.8100    0.0000 H   0  0  0  0  0  0  0  0  0  0  0  0
    3.7320    1.8100    0.0000 H   0  0  0  0  0  0  0  0  0  0  0  0
    2.0000   -1.1900    0.0000 H   0  0  0  0  0  0  0  0  0  0  0  0
    2.5369   -2.1200    0.0000 H   0  0  0  0  0  0  0  0  0  0  0  0
  1 16  1  0  0  0  0
  2 15  2  0  0  0  0
  3 15  1  0  0  0  0
  3 25  1  0  0  0  0
  3 26  1  0  0  0  0
  4  5  1  0  0  0  0
  4  6  1  0  0  0  0
  4  7  2  0  0  0  0
  5  8  2  0  0  0  0
  5  9  1  0  0  0  0
  6 10  2  0  0  0  0
  6 15  1  0  0  0  0
  7 11  1  0  0  0  0
  7 17  1  0  0  0  0
  8 13  1  0  0  0  0
  8 18  1  0  0  0  0
  9 14  2  0  0  0  0
  9 19  1  0  0  0  0
 10 12  1  0  0  0  0
 10 20  1  0  0  0  0
 11 12  2  0  0  0  0
 11 21  1  0  0  0  0
 12 22  1  0  0  0  0
 13 16  2  0  0  0  0
 13 23  1  0  0  0  0
 14 16  1  0  0  0  0
 14 24  1  0  0  0  0
M  END
> <PUBCHEM_COMPOUND_CID>
15982087

> <PUBCHEM_COMPOUND_CANONICALIZED>
1

> <PUBCHEM_CACTVS_COMPLEXITY>
248

> <PUBCHEM_CACTVS_HBOND_ACCEPTOR>
1

> <PUBCHEM_CACTVS_HBOND_DONOR>
1

> <PUBCHEM_CACTVS_ROTATABLE_BOND>
2

> <PUBCHEM_CACTVS_SUBSKEYS>
AAADccByIAAAEAAAAAAAAAAAAAAAAAAAAAAwYAAAAAAAAAABQAAAHgBQAAABrACBmAAwAIBAAACIAiFSEACCAAAkAAQIiAEABOgIIDKAlRGAIQBggAAIi5cYiMCOggAAAAAQAAAEAAAAACAAAAAAAAAAAA==

> <PUBCHEM_IUPAC_OPENEYE_NAME>
2-(4-bromophenyl)benzamide

> <PUBCHEM_IUPAC_CAS_NAME>
2-(4-bromophenyl)benzamide

> <PUBCHEM_IUPAC_NAME>
2-(4-bromophenyl)benzamide

> <PUBCHEM_IUPAC_SYSTEMATIC_NAME>
2-(4-bromophenyl)benzamide

> <PUBCHEM_IUPAC_TRADITIONAL_NAME>
2-(4-bromophenyl)benzamide

> <PUBCHEM_IUPAC_INCHI>
InChI=1S/C13H10BrNO/c14-10-7-5-9(6-8-10)11-3-1-2-4-12(11)13(15)16/h1-8H,(H2,15,16)

> <PUBCHEM_IUPAC_INCHIKEY>
MVLILGWACDODQX-UHFFFAOYSA-N

> <PUBCHEM_XLOGP3>
2.9

> <PUBCHEM_EXACT_MASS>
274.994576

> <PUBCHEM_MOLECULAR_FORMULA>
C13H10BrNO

> <PUBCHEM_MOLECULAR_WEIGHT>
276.1286

> <PUBCHEM_OPENEYE_CAN_SMILES>
C1=CC=C(C(=C1)C2=CC=C(C=C2)Br)C(=O)N

> <PUBCHEM_OPENEYE_ISO_SMILES>
C1=CC=C(C(=C1)C2=CC=C(C=C2)Br)C(=O)N

> <PUBCHEM_CACTVS_TPSA>
43.1

> <PUBCHEM_MONOISOTOPIC_WEIGHT>
274.994576

> <PUBCHEM_TOTAL_CHARGE>
0

> <PUBCHEM_HEAVY_ATOM_COUNT>
16

> <PUBCHEM_ATOM_DEF_STEREO_COUNT>
0

> <PUBCHEM_ATOM_UDEF_STEREO_COUNT>
0

> <PUBCHEM_BOND_DEF_STEREO_COUNT>
0

> <PUBCHEM_BOND_UDEF_STEREO_COUNT>
0

> <PUBCHEM_ISOTOPIC_ATOM_COUNT>
0

> <PUBCHEM_COMPONENT_COUNT>
1

> <PUBCHEM_CACTVS_TAUTO_COUNT>
2

> <PUBCHEM_COORDINATE_TYPE>
1
5
255

> <PUBCHEM_BONDANNOTATIONS>
10  12  8
11  12  8
13  16  8
14  16  8
4  6  8
4  7  8
5  8  8
5  9  8
6  10  8
7  11  8
8  13  8
9  14  8

$$$$
15984072
  -OEChem-12041210212D

 22 23  0     0  0  0  0  0  0999 V2000
    2.8660   -2.8512    0.0000 I   0  0  0  0  0  0  0  0  0  0  0  0
    3.7320    1.6488    0.0000 N   0  0  0  0  0  0  0  0  0  0  0  0
    5.3147    1.9852    0.0000 N   0  0  0  0  0  0  0  0  0  0  0  0
    2.8660    1.1488    0.0000 C   0  0  0  0  0  0  0  0  0  0  0  0
    2.8660    0.1488    0.0000 C   0  0  0  0  0  0  0  0  0  0  0  0
    2.0000   -0.3512    0.0000 C   0  0  0  0  0  0  0  0  0  0  0  0
    3.7320   -0.3512    0.0000 C   0  0  0  0  0  0  0  0  0  0  0  0
    3.8366    2.6433    0.0000 C   0  0  0  0  0  0  0  0  0  0  0  0
    4.6456    1.2421    0.0000 C   0  0  0  0  0  0  0  0  0  0  0  0
    2.0000   -1.3512    0.0000 C   0  0  0  0  0  0  0  0  0  0  0  0
    3.7320   -1.3512    0.0000 C   0  0  0  0  0  0  0  0  0  0  0  0
    4.8147    2.8512    0.0000 C   0  0  0  0  0  0  0  0  0  0  0  0
    2.8660   -1.8512    0.0000 C   0  0  0  0  0  0  0  0  0  0  0  0
    2.6540    1.7314    0.0000 H   0  0  0  0  0  0  0  0  0  0  0  0
    2.2554    1.0411    0.0000 H   0  0  0  0  0  0  0  0  0  0  0  0
    1.4631   -0.0412    0.0000 H   0  0  0  0  0  0  0  0  0  0  0  0
    4.2690   -0.0412    0.0000 H   0  0  0  0  0  0  0  0  0  0  0  0
    3.3758    3.0582    0.0000 H   0  0  0  0  0  0  0  0  0  0  0  0
    4.7745    0.6356    0.0000 H   0  0  0  0  0  0  0  0  0  0  0  0
    1.4631   -1.6612    0.0000 H   0  0  0  0  0  0  0  0  0  0  0  0
    4.2690   -1.6612    0.0000 H   0  0  0  0  0  0  0  0  0  0  0  0
    5.0669    3.4176    0.0000 H   0  0  0  0  0  0  0  0  0  0  0  0
  1 13  1  0  0  0  0
  2  4  1  0  0  0  0
  2  8  1  0  0  0  0
  2  9  1  0  0  0  0
  3  9  2  0  0  0  0
  3 12  1  0  0  0  0
  4  5  1  0  0  0  0
  4 14  1  0  0  0  0
  4 15  1  0  0  0  0
  5  6  2  0  0  0  0
  5  7  1  0  0  0  0
  6 10  1  0  0  0  0
  6 16  1  0  0  0  0
  7 11  2  0  0  0  0
  7 17  1  0  0  0  0
  8 12  2  0  0  0  0
  8 18  1  0  0  0  0
  9 19  1  0  0  0  0
 10 13  2  0  0  0  0
 10 20  1  0  0  0  0
 11 13  1  0  0  0  0
 11 21  1  0  0  0  0
 12 22  1  0  0  0  0
M  END
> <PUBCHEM_COMPOUND_CID>
15984072

> <PUBCHEM_COMPOUND_CANONICALIZED>
1

> <PUBCHEM_CACTVS_COMPLEXITY>
155

> <PUBCHEM_CACTVS_HBOND_ACCEPTOR>
1

> <PUBCHEM_CACTVS_HBOND_DONOR>
0

> <PUBCHEM_CACTVS_ROTATABLE_BOND>
2

> <PUBCHEM_CACTVS_SUBSKEYS>
AAADccBzAAAAAgAAAAAAAAAAAAAAAWAAAAAwAAAAAAAAAAABwAAAHAAgAAAADADDGgQ9kJcMEACgAjBnZACCgC0xEqAJyAAYNIiIaCKAmRGUIAhogAKIiCcQgAAOAAAAAAAAAAAAAAAAAAAAAAAAAAAAAA==

> <PUBCHEM_IUPAC_OPENEYE_NAME>
1-[(4-iodophenyl)methyl]imidazole

> <PUBCHEM_IUPAC_CAS_NAME>
1-[(4-iodophenyl)methyl]imidazole

> <PUBCHEM_IUPAC_NAME>
1-[(4-iodophenyl)methyl]imidazole

> <PUBCHEM_IUPAC_SYSTEMATIC_NAME>
1-[(4-iodophenyl)methyl]imidazole

> <PUBCHEM_IUPAC_TRADITIONAL_NAME>
1-(4-iodobenzyl)imidazole

> <PUBCHEM_IUPAC_INCHI>
InChI=1S/C10H9IN2/c11-10-3-1-9(2-4-10)7-13-6-5-12-8-13/h1-6,8H,7H2

> <PUBCHEM_IUPAC_INCHIKEY>
WZKZRSOWLZKJCL-UHFFFAOYSA-N

> <PUBCHEM_XLOGP3>
2.3

> <PUBCHEM_EXACT_MASS>
283.981046

> <PUBCHEM_MOLECULAR_FORMULA>
C10H9IN2

> <PUBCHEM_MOLECULAR_WEIGHT>
284.09633

> <PUBCHEM_OPENEYE_CAN_SMILES>
C1=CC(=CC=C1CN2C=CN=C2)I

> <PUBCHEM_OPENEYE_ISO_SMILES>
C1=CC(=CC=C1CN2C=CN=C2)I

> <PUBCHEM_CACTVS_TPSA>
17.8

> <PUBCHEM_MONOISOTOPIC_WEIGHT>
283.981046

> <PUBCHEM_TOTAL_CHARGE>
0

> <PUBCHEM_HEAVY_ATOM_COUNT>
13

> <PUBCHEM_ATOM_DEF_STEREO_COUNT>
0

> <PUBCHEM_ATOM_UDEF_STEREO_COUNT>
0

> <PUBCHEM_BOND_DEF_STEREO_COUNT>
0

> <PUBCHEM_BOND_UDEF_STEREO_COUNT>
0

> <PUBCHEM_ISOTOPIC_ATOM_COUNT>
0

> <PUBCHEM_COMPONENT_COUNT>
1

> <PUBCHEM_CACTVS_TAUTO_COUNT>
1

> <PUBCHEM_COORDINATE_TYPE>
1
5
255

> <PUBCHEM_BONDANNOTATIONS>
10  13  8
11  13  8
2  8  8
2  9  8
3  12  8
3  9  8
5  6  8
5  7  8
6  10  8
7  11  8
8  12  8

$$$$
15998962
  -OEChem-12041210222D

 58 61  0     0  0  0  0  0  0999 V2000
   11.2574   -1.2604    0.0000 S   0  0  0  0  0  0  0  0  0  0  0  0
    8.6651    2.2979    0.0000 F   0  0  0  0  0  0  0  0  0  0  0  0
   11.7607   -0.3963    0.0000 O   0  0  0  0  0  0  0  0  0  0  0  0
   10.7541   -2.1245    0.0000 O   0  0  0  0  0  0  0  0  0  0  0  0
    5.1350    3.2738    0.0000 O   0  0  0  0  0  0  0  0  0  0  0  0
   14.7138   -3.2738    0.0000 O   0  0  0  0  0  0  0  0  0  0  0  0
    2.5369    1.7738    0.0000 O   0  0  0  0  0  0  0  0  0  0  0  0
    3.4030    3.2738    0.0000 O   0  0  0  0  0  0  0  0  0  0  0  0
   10.3933   -0.7571    0.0000 N   0  0  0  0  0  0  0  0  0  0  0  0
    8.6651    0.2496    0.0000 N   0  0  0  0  0  0  0  0  0  0  0  0
    5.1350    0.2737    0.0000 N   0  0  0  0  0  0  0  0  0  0  0  0
   10.3972    0.2429    0.0000 C   0  0  0  0  0  0  0  0  0  0  0  0
    9.5254   -1.2537    0.0000 C   0  0  0  0  0  0  0  0  0  0  0  0
    8.6613   -0.7504    0.0000 C   0  0  0  0  0  0  0  0  0  0  0  0
    9.5331    0.7463    0.0000 C   0  0  0  0  0  0  0  0  0  0  0  0
    7.8010    0.7529    0.0000 C   0  0  0  0  0  0  0  0  0  0  0  0
    6.8950    0.2391    0.0000 C   0  0  0  0  0  0  0  0  0  0  0  0
    6.0010    0.7737    0.0000 C   0  0  0  0  0  0  0  0  0  0  0  0
   12.1215   -1.7637    0.0000 C   0  0  0  0  0  0  0  0  0  0  0  0
    7.8010    1.7946    0.0000 C   0  0  0  0  0  0  0  0  0  0  0  0
    6.0010    1.7738    0.0000 C   0  0  0  0  0  0  0  0  0  0  0  0
    6.8950    2.3084    0.0000 C   0  0  0  0  0  0  0  0  0  0  0  0
    5.1350    2.2738    0.0000 C   0  0  0  0  0  0  0  0  0  0  0  0
    5.1350   -0.7263    0.0000 C   0  0  0  0  0  0  0  0  0  0  0  0
   12.1177   -2.7637    0.0000 C   0  0  0  0  0  0  0  0  0  0  0  0
   12.9895   -1.2671    0.0000 C   0  0  0  0  0  0  0  0  0  0  0  0
    4.2690    0.7737    0.0000 C   0  0  0  0  0  0  0  0  0  0  0  0
    4.2690    1.7738    0.0000 C   0  0  0  0  0  0  0  0  0  0  0  0
   12.9817   -3.2671    0.0000 C   0  0  0  0  0  0  0  0  0  0  0  0
   13.8535   -1.7704    0.0000 C   0  0  0  0  0  0  0  0  0  0  0  0
    4.2690   -1.2262    0.0000 C   0  0  0  0  0  0  0  0  0  0  0  0
   13.8497   -2.7704    0.0000 C   0  0  0  0  0  0  0  0  0  0  0  0
    3.4030    2.2738    0.0000 C   0  0  0  0  0  0  0  0  0  0  0  0
   15.5817   -2.7771    0.0000 C   0  0  0  0  0  0  0  0  0  0  0  0
   11.0073    0.1329    0.0000 H   0  0  0  0  0  0  0  0  0  0  0  0
   10.6115    0.8247    0.0000 H   0  0  0  0  0  0  0  0  0  0  0  0
    9.1250   -1.7271    0.0000 H   0  0  0  0  0  0  0  0  0  0  0  0
    9.9221   -1.7302    0.0000 H   0  0  0  0  0  0  0  0  0  0  0  0
    9.9334    1.2197    0.0000 H   0  0  0  0  0  0  0  0  0  0  0  0
    9.1364    1.2227    0.0000 H   0  0  0  0  0  0  0  0  0  0  0  0
    8.0511   -0.6404    0.0000 H   0  0  0  0  0  0  0  0  0  0  0  0
    8.4470   -1.3322    0.0000 H   0  0  0  0  0  0  0  0  0  0  0  0
    6.8878   -0.3809    0.0000 H   0  0  0  0  0  0  0  0  0  0  0  0
    6.8878    2.9284    0.0000 H   0  0  0  0  0  0  0  0  0  0  0  0
    5.3471   -1.3089    0.0000 H   0  0  0  0  0  0  0  0  0  0  0  0
    5.7456   -0.6186    0.0000 H   0  0  0  0  0  0  0  0  0  0  0  0
   11.5795   -3.0717    0.0000 H   0  0  0  0  0  0  0  0  0  0  0  0
   12.9918   -0.6471    0.0000 H   0  0  0  0  0  0  0  0  0  0  0  0
    3.7320    0.4637    0.0000 H   0  0  0  0  0  0  0  0  0  0  0  0
   12.9794   -3.8871    0.0000 H   0  0  0  0  0  0  0  0  0  0  0  0
   14.3917   -1.4625    0.0000 H   0  0  0  0  0  0  0  0  0  0  0  0
    3.9590   -0.6893    0.0000 H   0  0  0  0  0  0  0  0  0  0  0  0
    3.7320   -1.5362    0.0000 H   0  0  0  0  0  0  0  0  0  0  0  0
    4.5790   -1.7632    0.0000 H   0  0  0  0  0  0  0  0  0  0  0  0
    2.0000    2.0838    0.0000 H   0  0  0  0  0  0  0  0  0  0  0  0
   15.8897   -3.3152    0.0000 H   0  0  0  0  0  0  0  0  0  0  0  0
   16.1199   -2.4692    0.0000 H   0  0  0  0  0  0  0  0  0  0  0  0
   15.2738   -2.2390    0.0000 H   0  0  0  0  0  0  0  0  0  0  0  0
  1  3  2  0  0  0  0
  1  4  2  0  0  0  0
  1  9  1  0  0  0  0
  1 19  1  0  0  0  0
  2 20  1  0  0  0  0
  5 23  2  0  0  0  0
  6 32  1  0  0  0  0
  6 34  1  0  0  0  0
  7 33  1  0  0  0  0
  7 55  1  0  0  0  0
  8 33  2  0  0  0  0
  9 12  1  0  0  0  0
  9 13  1  0  0  0  0
 10 14  1  0  0  0  0
 10 15  1  0  0  0  0
 10 16  1  0  0  0  0
 11 18  1  0  0  0  0
 11 24  1  0  0  0  0
 11 27  1  0  0  0  0
 12 15  1  0  0  0  0
 12 35  1  0  0  0  0
 12 36  1  0  0  0  0
 13 14  1  0  0  0  0
 13 37  1  0  0  0  0
 13 38  1  0  0  0  0
 14 41  1  0  0  0  0
 14 42  1  0  0  0  0
 15 39  1  0  0  0  0
 15 40  1  0  0  0  0
 16 17  1  0  0  0  0
 16 20  2  0  0  0  0
 17 18  2  0  0  0  0
 17 43  1  0  0  0  0
 18 21  1  0  0  0  0
 19 25  2  0  0  0  0
 19 26  1  0  0  0  0
 20 22  1  0  0  0  0
 21 22  2  0  0  0  0
 21 23  1  0  0  0  0
 22 44  1  0  0  0  0
 23 28  1  0  0  0  0
 24 31  1  0  0  0  0
 24 45  1  0  0  0  0
 24 46  1  0  0  0  0
 25 29  1  0  0  0  0
 25 47  1  0  0  0  0
 26 30  2  0  0  0  0
 26 48  1  0  0  0  0
 27 28  2  0  0  0  0
 27 49  1  0  0  0  0
 28 33  1  0  0  0  0
 29 32  2  0  0  0  0
 29 50  1  0  0  0  0
 30 32  1  0  0  0  0
 30 51  1  0  0  0  0
 31 52  1  0  0  0  0
 31 53  1  0  0  0  0
 31 54  1  0  0  0  0
 34 56  1  0  0  0  0
 34 57  1  0  0  0  0
 34 58  1  0  0  0  0
M  END
> <PUBCHEM_COMPOUND_CID>
15998962

> <PUBCHEM_COMPOUND_CANONICALIZED>
1

> <PUBCHEM_CACTVS_COMPLEXITY>
906

> <PUBCHEM_CACTVS_HBOND_ACCEPTOR>
10

> <PUBCHEM_CACTVS_HBOND_DONOR>
1

> <PUBCHEM_CACTVS_ROTATABLE_BOND>
6

> <PUBCHEM_CACTVS_SUBSKEYS>
AAADceB7OQBAAAAAAAAAAAAAAAAAAAAAAAA8YIEAAAAAAACBQAAAHwQASAAADAzB2A4yz4MABgKIAqTWSHDCCBAlIgAIiBkObMgMZj7M9duUcahk4BHI+ceY2aOeCIAAAAQCAAARAAAACAQAAAAAAAAAAA==

> <PUBCHEM_IUPAC_OPENEYE_NAME>
1-ethyl-6-fluoro-7-[4-(4-methoxyphenyl)sulfonylpiperazin-1-yl]-4-oxo-quinoline-3-carboxylic acid

> <PUBCHEM_IUPAC_CAS_NAME>
1-ethyl-6-fluoro-7-[4-(4-methoxyphenyl)sulfonyl-1-piperazinyl]-4-oxo-3-quinolinecarboxylic acid

> <PUBCHEM_IUPAC_NAME>
1-ethyl-6-fluoro-7-[4-(4-methoxyphenyl)sulfonylpiperazin-1-yl]-4-oxoquinoline-3-carboxylic acid

> <PUBCHEM_IUPAC_SYSTEMATIC_NAME>
1-ethyl-6-fluoranyl-7-[4-(4-methoxyphenyl)sulfonylpiperazin-1-yl]-4-oxidanylidene-quinoline-3-carboxylic acid

> <PUBCHEM_IUPAC_TRADITIONAL_NAME>
1-ethyl-6-fluoro-4-keto-7-[4-(4-methoxyphenyl)sulfonylpiperazino]quinoline-3-carboxylic acid

> <PUBCHEM_IUPAC_INCHI>
InChI=1S/C23H24FN3O6S/c1-3-25-14-18(23(29)30)22(28)17-12-19(24)21(13-20(17)25)26-8-10-27(11-9-26)34(31,32)16-6-4-15(33-2)5-7-16/h4-7,12-14H,3,8-11H2,1-2H3,(H,29,30)

> <PUBCHEM_IUPAC_INCHIKEY>
ZOZSAMFREJOYJX-UHFFFAOYSA-N

> <PUBCHEM_XLOGP3>
2.5

> <PUBCHEM_EXACT_MASS>
489.136985

> <PUBCHEM_MOLECULAR_FORMULA>
C23H24FN3O6S

> <PUBCHEM_MOLECULAR_WEIGHT>
489.516563

> <PUBCHEM_OPENEYE_CAN_SMILES>
CCN1C=C(C(=O)C2=CC(=C(C=C21)N3CCN(CC3)S(=O)(=O)C4=CC=C(C=C4)OC)F)C(=O)O

> <PUBCHEM_OPENEYE_ISO_SMILES>
CCN1C=C(C(=O)C2=CC(=C(C=C21)N3CCN(CC3)S(=O)(=O)C4=CC=C(C=C4)OC)F)C(=O)O

> <PUBCHEM_CACTVS_TPSA>
116

> <PUBCHEM_MONOISOTOPIC_WEIGHT>
489.136985

> <PUBCHEM_TOTAL_CHARGE>
0

> <PUBCHEM_HEAVY_ATOM_COUNT>
34

> <PUBCHEM_ATOM_DEF_STEREO_COUNT>
0

> <PUBCHEM_ATOM_UDEF_STEREO_COUNT>
0

> <PUBCHEM_BOND_DEF_STEREO_COUNT>
0

> <PUBCHEM_BOND_UDEF_STEREO_COUNT>
0

> <PUBCHEM_ISOTOPIC_ATOM_COUNT>
0

> <PUBCHEM_COMPONENT_COUNT>
1

> <PUBCHEM_CACTVS_TAUTO_COUNT>
1

> <PUBCHEM_COORDINATE_TYPE>
1
5
255

> <PUBCHEM_BONDANNOTATIONS>
11  18  8
11  27  8
16  17  8
16  20  8
17  18  8
18  21  8
19  25  8
19  26  8
20  22  8
21  22  8
21  23  8
23  28  8
25  29  8
26  30  8
27  28  8
29  32  8
30  32  8

$$$$
