32716909
  -OEChem-11301217442D

 51 53  0     1  0  0  0  0  0999 V2000
    7.9244    0.5478    0.0000 O   0  0  0  0  0  0  0  0  0  0  0  0
    8.5458    2.4488    0.0000 N   0  3  0  0  0  0  0  0  0  0  0  0
    6.2781    1.0859    0.0000 N   0  0  0  0  0  0  0  0  0  0  0  0
    4.6783   -2.6308    0.0000 N   0  0  0  0  0  0  0  0  0  0  0  0
    8.7520    1.4703    0.0000 C   0  0  0  0  0  0  0  0  0  0  0  0
    9.1822    3.2202    0.0000 C   0  0  0  0  0  0  0  0  0  0  0  0
    7.5673    2.2426    0.0000 C   0  0  2  0  0  0  0  0  0  0  0  0
    9.6456    1.0215    0.0000 C   0  0  0  0  0  0  0  0  0  0  0  0
   10.1821    3.2035    0.0000 C   0  0  0  0  0  0  0  0  0  0  0  0
   10.7924    2.4113    0.0000 C   0  0  0  0  0  0  0  0  0  0  0  0
   10.5537    1.4403    0.0000 C   0  0  0  0  0  0  0  0  0  0  0  0
    6.8994    2.9869    0.0000 C   0  0  0  0  0  0  0  0  0  0  0  0
    7.2566    1.2921    0.0000 C   0  0  0  0  0  0  0  0  0  0  0  0
    5.9674    0.1354    0.0000 C   0  0  0  0  0  0  0  0  0  0  0  0
    4.9889   -0.0709    0.0000 C   0  0  0  0  0  0  0  0  0  0  0  0
    4.6783   -1.0214    0.0000 C   0  0  0  0  0  0  0  0  0  0  0  0
    3.7320   -1.3261    0.0000 C   0  0  0  0  0  0  0  0  0  0  0  0
    3.7320   -2.3261    0.0000 C   0  0  0  0  0  0  0  0  0  0  0  0
    5.2619   -1.8261    0.0000 C   0  0  0  0  0  0  0  0  0  0  0  0
    2.8660   -0.8261    0.0000 C   0  0  0  0  0  0  0  0  0  0  0  0
    2.8660   -2.8261    0.0000 C   0  0  0  0  0  0  0  0  0  0  0  0
    2.0000   -1.3261    0.0000 C   0  0  0  0  0  0  0  0  0  0  0  0
    2.0000   -2.3261    0.0000 C   0  0  0  0  0  0  0  0  0  0  0  0
    7.7745    3.0853    0.0000 H   0  0  0  0  0  0  0  0  0  0  0  0
    9.3303    3.8222    0.0000 H   0  0  0  0  0  0  0  0  0  0  0  0
    8.6282    3.4984    0.0000 H   0  0  0  0  0  0  0  0  0  0  0  0
    8.1321    1.4807    0.0000 H   0  0  0  0  0  0  0  0  0  0  0  0
    8.6040    0.8683    0.0000 H   0  0  0  0  0  0  0  0  0  0  0  0
    7.7599    2.8320    0.0000 H   0  0  0  0  0  0  0  0  0  0  0  0
   10.7451    3.4631    0.0000 H   0  0  0  0  0  0  0  0  0  0  0  0
   10.0542    3.8101    0.0000 H   0  0  0  0  0  0  0  0  0  0  0  0
    9.2510    0.5433    0.0000 H   0  0  0  0  0  0  0  0  0  0  0  0
   10.0240    0.5304    0.0000 H   0  0  0  0  0  0  0  0  0  0  0  0
   11.3465    2.1330    0.0000 H   0  0  0  0  0  0  0  0  0  0  0  0
   10.6815    0.8336    0.0000 H   0  0  0  0  0  0  0  0  0  0  0  0
   11.1870    2.8896    0.0000 H   0  0  0  0  0  0  0  0  0  0  0  0
   11.1736    1.4299    0.0000 H   0  0  0  0  0  0  0  0  0  0  0  0
    7.3609    3.4010    0.0000 H   0  0  0  0  0  0  0  0  0  0  0  0
    6.4854    3.4484    0.0000 H   0  0  0  0  0  0  0  0  0  0  0  0
    6.4380    2.5729    0.0000 H   0  0  0  0  0  0  0  0  0  0  0  0
    5.8640    1.5474    0.0000 H   0  0  0  0  0  0  0  0  0  0  0  0
    5.9880   -0.4843    0.0000 H   0  0  0  0  0  0  0  0  0  0  0  0
    6.5812    0.0480    0.0000 H   0  0  0  0  0  0  0  0  0  0  0  0
    4.9684    0.5488    0.0000 H   0  0  0  0  0  0  0  0  0  0  0  0
    4.3751    0.0165    0.0000 H   0  0  0  0  0  0  0  0  0  0  0  0
    5.8819   -1.8261    0.0000 H   0  0  0  0  0  0  0  0  0  0  0  0
    4.8709   -3.2202    0.0000 H   0  0  0  0  0  0  0  0  0  0  0  0
    2.8660   -0.2061    0.0000 H   0  0  0  0  0  0  0  0  0  0  0  0
    2.8660   -3.4461    0.0000 H   0  0  0  0  0  0  0  0  0  0  0  0
    1.4631   -1.0161    0.0000 H   0  0  0  0  0  0  0  0  0  0  0  0
    1.4631   -2.6361    0.0000 H   0  0  0  0  0  0  0  0  0  0  0  0
  1 13  2  0  0  0  0
  2  5  1  0  0  0  0
  2  6  1  0  0  0  0
  2  7  1  0  0  0  0
  2 24  1  0  0  0  0
  3 13  1  0  0  0  0
  3 14  1  0  0  0  0
  3 41  1  0  0  0  0
  4 18  1  0  0  0  0
  4 19  1  0  0  0  0
  4 47  1  0  0  0  0
  5  8  1  0  0  0  0
  5 27  1  0  0  0  0
  5 28  1  0  0  0  0
  6  9  1  0  0  0  0
  6 25  1  0  0  0  0
  6 26  1  0  0  0  0
  7 12  1  1  0  0  0
  7 13  1  0  0  0  0
  7 29  1  0  0  0  0
  8 11  1  0  0  0  0
  8 32  1  0  0  0  0
  8 33  1  0  0  0  0
  9 10  1  0  0  0  0
  9 30  1  0  0  0  0
  9 31  1  0  0  0  0
 10 11  1  0  0  0  0
 10 34  1  0  0  0  0
 10 36  1  0  0  0  0
 11 35  1  0  0  0  0
 11 37  1  0  0  0  0
 12 38  1  0  0  0  0
 12 39  1  0  0  0  0
 12 40  1  0  0  0  0
 14 15  1  0  0  0  0
 14 42  1  0  0  0  0
 14 43  1  0  0  0  0
 15 16  1  0  0  0  0
 15 44  1  0  0  0  0
 15 45  1  0  0  0  0
 16 17  1  0  0  0  0
 16 19  2  0  0  0  0
 17 18  1  0  0  0  0
 17 20  2  0  0  0  0
 18 21  2  0  0  0  0
 19 46  1  0  0  0  0
 20 22  1  0  0  0  0
 20 48  1  0  0  0  0
 21 23  1  0  0  0  0
 21 49  1  0  0  0  0
 22 23  2  0  0  0  0
 22 50  1  0  0  0  0
 23 51  1  0  0  0  0
M  CHG  1   2   1
M  END
> <PUBCHEM_COMPOUND_CID>
32716909

> <PUBCHEM_COMPOUND_CANONICALIZED>
1

> <PUBCHEM_CACTVS_COMPLEXITY>
379

> <PUBCHEM_CACTVS_HBOND_ACCEPTOR>
1

> <PUBCHEM_CACTVS_HBOND_DONOR>
3

> <PUBCHEM_CACTVS_ROTATABLE_BOND>
5

> <PUBCHEM_CACTVS_SUBSKEYS>
AAADceB7IAAAAAAAAAAAAAAAAAAAAWAAAAAwAAAABYAAAFgB8AAAHgAQAAAADCjBngQ+wPPJkACoAzV3VACCgCAxAiAI2aG4ZJgIYOLAkbGUIAhglgDIyAcQgMAOgAAAAAACAAAAAAAAAAQAAAAAAAAAAA==

> <PUBCHEM_IUPAC_OPENEYE_NAME>
(2R)-2-(azepan-1-ium-1-yl)-N-[2-(1H-indol-3-yl)ethyl]propanamide

> <PUBCHEM_IUPAC_CAS_NAME>
(2R)-2-(1-azepan-1-iumyl)-N-[2-(1H-indol-3-yl)ethyl]propanamide

> <PUBCHEM_IUPAC_NAME>
(2R)-2-(azepan-1-ium-1-yl)-N-[2-(1H-indol-3-yl)ethyl]propanamide

> <PUBCHEM_IUPAC_SYSTEMATIC_NAME>
(2R)-2-(azepan-1-ium-1-yl)-N-[2-(1H-indol-3-yl)ethyl]propanamide

> <PUBCHEM_IUPAC_TRADITIONAL_NAME>
(2R)-2-(azepan-1-ium-1-yl)-N-[2-(1H-indol-3-yl)ethyl]propionamide

> <PUBCHEM_IUPAC_INCHI>
InChI=1S/C19H27N3O/c1-15(22-12-6-2-3-7-13-22)19(23)20-11-10-16-14-21-18-9-5-4-8-17(16)18/h4-5,8-9,14-15,21H,2-3,6-7,10-13H2,1H3,(H,20,23)/p+1/t15-/m1/s1

> <PUBCHEM_IUPAC_INCHIKEY>
CLFSAWKKFFBMKJ-OAHLLOKOSA-O

> <PUBCHEM_XLOGP3>
3.5

> <PUBCHEM_EXACT_MASS>
314.223238

> <PUBCHEM_MOLECULAR_FORMULA>
C19H28N3O+

> <PUBCHEM_MOLECULAR_WEIGHT>
314.44512

> <PUBCHEM_OPENEYE_CAN_SMILES>
CC(C(=O)NCCC1=CNC2=CC=CC=C21)[NH+]3CCCCCC3

> <PUBCHEM_OPENEYE_ISO_SMILES>
C[C@H](C(=O)NCCC1=CNC2=CC=CC=C21)[NH+]3CCCCCC3

> <PUBCHEM_CACTVS_TPSA>
49.3

> <PUBCHEM_MONOISOTOPIC_WEIGHT>
314.223238

> <PUBCHEM_TOTAL_CHARGE>
1

> <PUBCHEM_HEAVY_ATOM_COUNT>
23

> <PUBCHEM_ATOM_DEF_STEREO_COUNT>
1

> <PUBCHEM_ATOM_UDEF_STEREO_COUNT>
0

> <PUBCHEM_BOND_DEF_STEREO_COUNT>
0

> <PUBCHEM_BOND_UDEF_STEREO_COUNT>
0

> <PUBCHEM_ISOTOPIC_ATOM_COUNT>
0

> <PUBCHEM_COMPONENT_COUNT>
1

> <PUBCHEM_CACTVS_TAUTO_COUNT>
2

> <PUBCHEM_COORDINATE_TYPE>
1
5
255

> <PUBCHEM_BONDANNOTATIONS>
16  17  8
16  19  8
17  18  8
17  20  8
18  21  8
20  22  8
21  23  8
22  23  8
4  18  8
4  19  8
7  12  5

$$$$
32716914
  -OEChem-11301217442D

 51 53  0     1  0  0  0  0  0999 V2000
    7.9244    0.5478    0.0000 O   0  0  0  0  0  0  0  0  0  0  0  0
    8.5458    2.4488    0.0000 N   0  3  0  0  0  0  0  0  0  0  0  0
    6.2781    1.0859    0.0000 N   0  0  0  0  0  0  0  0  0  0  0  0
    4.6783   -2.6308    0.0000 N   0  0  0  0  0  0  0  0  0  0  0  0
    8.7520    1.4703    0.0000 C   0  0  0  0  0  0  0  0  0  0  0  0
    9.1822    3.2202    0.0000 C   0  0  0  0  0  0  0  0  0  0  0  0
    7.5673    2.2426    0.0000 C   0  0  1  0  0  0  0  0  0  0  0  0
    9.6456    1.0215    0.0000 C   0  0  0  0  0  0  0  0  0  0  0  0
   10.1821    3.2035    0.0000 C   0  0  0  0  0  0  0  0  0  0  0  0
   10.7924    2.4113    0.0000 C   0  0  0  0  0  0  0  0  0  0  0  0
   10.5537    1.4403    0.0000 C   0  0  0  0  0  0  0  0  0  0  0  0
    6.8994    2.9869    0.0000 C   0  0  0  0  0  0  0  0  0  0  0  0
    7.2566    1.2921    0.0000 C   0  0  0  0  0  0  0  0  0  0  0  0
    5.9674    0.1354    0.0000 C   0  0  0  0  0  0  0  0  0  0  0  0
    4.9889   -0.0709    0.0000 C   0  0  0  0  0  0  0  0  0  0  0  0
    4.6783   -1.0214    0.0000 C   0  0  0  0  0  0  0  0  0  0  0  0
    3.7320   -1.3261    0.0000 C   0  0  0  0  0  0  0  0  0  0  0  0
    3.7320   -2.3261    0.0000 C   0  0  0  0  0  0  0  0  0  0  0  0
    5.2619   -1.8261    0.0000 C   0  0  0  0  0  0  0  0  0  0  0  0
    2.8660   -0.8261    0.0000 C   0  0  0  0  0  0  0  0  0  0  0  0
    2.8660   -2.8261    0.0000 C   0  0  0  0  0  0  0  0  0  0  0  0
    2.0000   -1.3261    0.0000 C   0  0  0  0  0  0  0  0  0  0  0  0
    2.0000   -2.3261    0.0000 C   0  0  0  0  0  0  0  0  0  0  0  0
    7.7745    3.0853    0.0000 H   0  0  0  0  0  0  0  0  0  0  0  0
    9.3303    3.8222    0.0000 H   0  0  0  0  0  0  0  0  0  0  0  0
    8.6282    3.4984    0.0000 H   0  0  0  0  0  0  0  0  0  0  0  0
    8.1321    1.4807    0.0000 H   0  0  0  0  0  0  0  0  0  0  0  0
    8.6040    0.8683    0.0000 H   0  0  0  0  0  0  0  0  0  0  0  0
    7.7599    2.8320    0.0000 H   0  0  0  0  0  0  0  0  0  0  0  0
   10.7451    3.4631    0.0000 H   0  0  0  0  0  0  0  0  0  0  0  0
   10.0542    3.8101    0.0000 H   0  0  0  0  0  0  0  0  0  0  0  0
    9.2510    0.5433    0.0000 H   0  0  0  0  0  0  0  0  0  0  0  0
   10.0240    0.5304    0.0000 H   0  0  0  0  0  0  0  0  0  0  0  0
   11.3465    2.1330    0.0000 H   0  0  0  0  0  0  0  0  0  0  0  0
   10.6815    0.8336    0.0000 H   0  0  0  0  0  0  0  0  0  0  0  0
   11.1870    2.8896    0.0000 H   0  0  0  0  0  0  0  0  0  0  0  0
   11.1736    1.4299    0.0000 H   0  0  0  0  0  0  0  0  0  0  0  0
    7.3609    3.4010    0.0000 H   0  0  0  0  0  0  0  0  0  0  0  0
    6.4854    3.4484    0.0000 H   0  0  0  0  0  0  0  0  0  0  0  0
    6.4380    2.5729    0.0000 H   0  0  0  0  0  0  0  0  0  0  0  0
    5.8640    1.5474    0.0000 H   0  0  0  0  0  0  0  0  0  0  0  0
    5.9880   -0.4843    0.0000 H   0  0  0  0  0  0  0  0  0  0  0  0
    6.5812    0.0480    0.0000 H   0  0  0  0  0  0  0  0  0  0  0  0
    4.9684    0.5488    0.0000 H   0  0  0  0  0  0  0  0  0  0  0  0
    4.3751    0.0165    0.0000 H   0  0  0  0  0  0  0  0  0  0  0  0
    5.8819   -1.8261    0.0000 H   0  0  0  0  0  0  0  0  0  0  0  0
    4.8709   -3.2202    0.0000 H   0  0  0  0  0  0  0  0  0  0  0  0
    2.8660   -0.2061    0.0000 H   0  0  0  0  0  0  0  0  0  0  0  0
    2.8660   -3.4461    0.0000 H   0  0  0  0  0  0  0  0  0  0  0  0
    1.4631   -1.0161    0.0000 H   0  0  0  0  0  0  0  0  0  0  0  0
    1.4631   -2.6361    0.0000 H   0  0  0  0  0  0  0  0  0  0  0  0
  1 13  2  0  0  0  0
  2  5  1  0  0  0  0
  2  6  1  0  0  0  0
  2  7  1  0  0  0  0
  2 24  1  0  0  0  0
  3 13  1  0  0  0  0
  3 14  1  0  0  0  0
  3 41  1  0  0  0  0
  4 18  1  0  0  0  0
  4 19  1  0  0  0  0
  4 47  1  0  0  0  0
  5  8  1  0  0  0  0
  5 27  1  0  0  0  0
  5 28  1  0  0  0  0
  6  9  1  0  0  0  0
  6 25  1  0  0  0  0
  6 26  1  0  0  0  0
  7 12  1  6  0  0  0
  7 13  1  0  0  0  0
  7 29  1  0  0  0  0
  8 11  1  0  0  0  0
  8 32  1  0  0  0  0
  8 33  1  0  0  0  0
  9 10  1  0  0  0  0
  9 30  1  0  0  0  0
  9 31  1  0  0  0  0
 10 11  1  0  0  0  0
 10 34  1  0  0  0  0
 10 36  1  0  0  0  0
 11 35  1  0  0  0  0
 11 37  1  0  0  0  0
 12 38  1  0  0  0  0
 12 39  1  0  0  0  0
 12 40  1  0  0  0  0
 14 15  1  0  0  0  0
 14 42  1  0  0  0  0
 14 43  1  0  0  0  0
 15 16  1  0  0  0  0
 15 44  1  0  0  0  0
 15 45  1  0  0  0  0
 16 17  1  0  0  0  0
 16 19  2  0  0  0  0
 17 18  1  0  0  0  0
 17 20  2  0  0  0  0
 18 21  2  0  0  0  0
 19 46  1  0  0  0  0
 20 22  1  0  0  0  0
 20 48  1  0  0  0  0
 21 23  1  0  0  0  0
 21 49  1  0  0  0  0
 22 23  2  0  0  0  0
 22 50  1  0  0  0  0
 23 51  1  0  0  0  0
M  CHG  1   2   1
M  END
> <PUBCHEM_COMPOUND_CID>
32716914

> <PUBCHEM_COMPOUND_CANONICALIZED>
1

> <PUBCHEM_CACTVS_COMPLEXITY>
379

> <PUBCHEM_CACTVS_HBOND_ACCEPTOR>
1

> <PUBCHEM_CACTVS_HBOND_DONOR>
3

> <PUBCHEM_CACTVS_ROTATABLE_BOND>
5

> <PUBCHEM_CACTVS_SUBSKEYS>
AAADceB7IAAAAAAAAAAAAAAAAAAAAWAAAAAwAAAABYAAAFgB8AAAHgAQAAAADCjBngQ+wPPJkACoAzV3VACCgCAxAiAI2aG4ZJgIYOLAkbGUIAhglgDIyAcQgMAOgAAAAAACAAAAAAAAAAQAAAAAAAAAAA==

> <PUBCHEM_IUPAC_OPENEYE_NAME>
(2S)-2-(azepan-1-ium-1-yl)-N-[2-(1H-indol-3-yl)ethyl]propanamide

> <PUBCHEM_IUPAC_CAS_NAME>
(2S)-2-(1-azepan-1-iumyl)-N-[2-(1H-indol-3-yl)ethyl]propanamide

> <PUBCHEM_IUPAC_NAME>
(2S)-2-(azepan-1-ium-1-yl)-N-[2-(1H-indol-3-yl)ethyl]propanamide

> <PUBCHEM_IUPAC_SYSTEMATIC_NAME>
(2S)-2-(azepan-1-ium-1-yl)-N-[2-(1H-indol-3-yl)ethyl]propanamide

> <PUBCHEM_IUPAC_TRADITIONAL_NAME>
(2S)-2-(azepan-1-ium-1-yl)-N-[2-(1H-indol-3-yl)ethyl]propionamide

> <PUBCHEM_IUPAC_INCHI>
InChI=1S/C19H27N3O/c1-15(22-12-6-2-3-7-13-22)19(23)20-11-10-16-14-21-18-9-5-4-8-17(16)18/h4-5,8-9,14-15,21H,2-3,6-7,10-13H2,1H3,(H,20,23)/p+1/t15-/m0/s1

> <PUBCHEM_IUPAC_INCHIKEY>
CLFSAWKKFFBMKJ-HNNXBMFYSA-O

> <PUBCHEM_XLOGP3>
3.5

> <PUBCHEM_EXACT_MASS>
314.223238

> <PUBCHEM_MOLECULAR_FORMULA>
C19H28N3O+

> <PUBCHEM_MOLECULAR_WEIGHT>
314.44512

> <PUBCHEM_OPENEYE_CAN_SMILES>
CC(C(=O)NCCC1=CNC2=CC=CC=C21)[NH+]3CCCCCC3

> <PUBCHEM_OPENEYE_ISO_SMILES>
C[C@@H](C(=O)NCCC1=CNC2=CC=CC=C21)[NH+]3CCCCCC3

> <PUBCHEM_CACTVS_TPSA>
49.3

> <PUBCHEM_MONOISOTOPIC_WEIGHT>
314.223238

> <PUBCHEM_TOTAL_CHARGE>
1

> <PUBCHEM_HEAVY_ATOM_COUNT>
23

> <PUBCHEM_ATOM_DEF_STEREO_COUNT>
1

> <PUBCHEM_ATOM_UDEF_STEREO_COUNT>
0

> <PUBCHEM_BOND_DEF_STEREO_COUNT>
0

> <PUBCHEM_BOND_UDEF_STEREO_COUNT>
0

> <PUBCHEM_ISOTOPIC_ATOM_COUNT>
0

> <PUBCHEM_COMPONENT_COUNT>
1

> <PUBCHEM_CACTVS_TAUTO_COUNT>
2

> <PUBCHEM_COORDINATE_TYPE>
1
5
255

> <PUBCHEM_BONDANNOTATIONS>
16  17  8
16  19  8
17  18  8
17  20  8
18  21  8
20  22  8
21  23  8
22  23  8
4  18  8
4  19  8
7  12  6

$$$$
