56582364
  -OEChem-06181312502D

 37 39  0     0  0  0  0  0  0999 V2000
    9.7942   -2.2694    0.0000 Cl  0  0  0  0  0  0  0  0  0  0  0  0
    5.4641   -1.7694    0.0000 O   0  0  0  0  0  0  0  0  0  0  0  0
    8.0622    0.7306    0.0000 N   0  0  0  0  0  0  0  0  0  0  0  0
    6.3301   -0.2694    0.0000 N   0  0  0  0  0  0  0  0  0  0  0  0
    8.0622   -0.2694    0.0000 C   0  0  0  0  0  0  0  0  0  0  0  0
    7.1962   -0.7694    0.0000 C   0  0  0  0  0  0  0  0  0  0  0  0
    4.5981   -0.2694    0.0000 C   0  0  0  0  0  0  0  0  0  0  0  0
    8.9282   -0.7694    0.0000 C   0  0  0  0  0  0  0  0  0  0  0  0
    7.1962   -1.7694    0.0000 C   0  0  0  0  0  0  0  0  0  0  0  0
    5.4641   -0.7694    0.0000 C   0  0  0  0  0  0  0  0  0  0  0  0
    3.7320   -0.7694    0.0000 C   0  0  0  0  0  0  0  0  0  0  0  0
    8.8712    1.3184    0.0000 C   0  0  0  0  0  0  0  0  0  0  0  0
    7.2532    1.3184    0.0000 C   0  0  0  0  0  0  0  0  0  0  0  0
    8.9282   -1.7694    0.0000 C   0  0  0  0  0  0  0  0  0  0  0  0
    8.0622   -2.2694    0.0000 C   0  0  0  0  0  0  0  0  0  0  0  0
    7.5622    2.2694    0.0000 C   0  0  0  0  0  0  0  0  0  0  0  0
    8.5622    2.2694    0.0000 C   0  0  0  0  0  0  0  0  0  0  0  0
    3.7320   -1.7694    0.0000 C   0  0  0  0  0  0  0  0  0  0  0  0
    2.8660   -0.2694    0.0000 C   0  0  0  0  0  0  0  0  0  0  0  0
    2.8660   -2.2694    0.0000 C   0  0  0  0  0  0  0  0  0  0  0  0
    2.0000   -0.7694    0.0000 C   0  0  0  0  0  0  0  0  0  0  0  0
    2.0000   -1.7694    0.0000 C   0  0  0  0  0  0  0  0  0  0  0  0
    4.9966    0.2055    0.0000 H   0  0  0  0  0  0  0  0  0  0  0  0
    4.1996    0.2055    0.0000 H   0  0  0  0  0  0  0  0  0  0  0  0
    6.3301    0.3506    0.0000 H   0  0  0  0  0  0  0  0  0  0  0  0
    9.4651   -0.4594    0.0000 H   0  0  0  0  0  0  0  0  0  0  0  0
    6.6592   -2.0794    0.0000 H   0  0  0  0  0  0  0  0  0  0  0  0
    9.4608    1.1268    0.0000 H   0  0  0  0  0  0  0  0  0  0  0  0
    6.6635    1.1268    0.0000 H   0  0  0  0  0  0  0  0  0  0  0  0
    8.0622   -2.8894    0.0000 H   0  0  0  0  0  0  0  0  0  0  0  0
    8.9266    2.7710    0.0000 H   0  0  0  0  0  0  0  0  0  0  0  0
    7.1978    2.7710    0.0000 H   0  0  0  0  0  0  0  0  0  0  0  0
    4.2690   -2.0794    0.0000 H   0  0  0  0  0  0  0  0  0  0  0  0
    2.8660    0.3506    0.0000 H   0  0  0  0  0  0  0  0  0  0  0  0
    2.8660   -2.8894    0.0000 H   0  0  0  0  0  0  0  0  0  0  0  0
    1.4631   -0.4594    0.0000 H   0  0  0  0  0  0  0  0  0  0  0  0
    1.4631   -2.0794    0.0000 H   0  0  0  0  0  0  0  0  0  0  0  0
  1 14  1  0  0  0  0
  2 10  2  0  0  0  0
  3  5  1  0  0  0  0
  3 12  1  0  0  0  0
  3 13  1  0  0  0  0
  4  6  1  0  0  0  0
  4 10  1  0  0  0  0
  4 25  1  0  0  0  0
  5  6  2  0  0  0  0
  5  8  1  0  0  0  0
  6  9  1  0  0  0  0
  7 10  1  0  0  0  0
  7 11  1  0  0  0  0
  7 23  1  0  0  0  0
  7 24  1  0  0  0  0
  8 14  2  0  0  0  0
  8 26  1  0  0  0  0
  9 15  2  0  0  0  0
  9 27  1  0  0  0  0
 11 18  2  0  0  0  0
 11 19  1  0  0  0  0
 12 17  2  0  0  0  0
 12 28  1  0  0  0  0
 13 16  2  0  0  0  0
 13 29  1  0  0  0  0
 14 15  1  0  0  0  0
 15 30  1  0  0  0  0
 16 17  1  0  0  0  0
 16 32  1  0  0  0  0
 17 31  1  0  0  0  0
 18 20  1  0  0  0  0
 18 33  1  0  0  0  0
 19 21  2  0  0  0  0
 19 34  1  0  0  0  0
 20 22  2  0  0  0  0
 20 35  1  0  0  0  0
 21 22  1  0  0  0  0
 21 36  1  0  0  0  0
 22 37  1  0  0  0  0
M  END
> <PUBCHEM_COMPOUND_CID>
56582364

> <PUBCHEM_COMPOUND_CANONICALIZED>
1

> <PUBCHEM_CACTVS_COMPLEXITY>
364

> <PUBCHEM_CACTVS_HBOND_ACCEPTOR>
1

> <PUBCHEM_CACTVS_HBOND_DONOR>
1

> <PUBCHEM_CACTVS_ROTATABLE_BOND>
4

> <PUBCHEM_CACTVS_SUBSKEYS>
AAADccB7IAAEAAAAAAAAAAAAAAAAAWAAAAAwYAAAAAAAAAAB0AAAHgIQAAAADArBmiQ8wJPMEACoAjV3VACCgCAxByAI2CE4dpgIYPLBl5GUIAhglADIyAcYiICOAABAAAIAACAAAIAABAAAQAAAAAAAAA==

> <PUBCHEM_IUPAC_OPENEYE_NAME>
N-(4-chloro-2-pyrrol-1-yl-phenyl)-2-phenyl-acetamide

> <PUBCHEM_IUPAC_CAS_NAME>
N-[4-chloro-2-(1-pyrrolyl)phenyl]-2-phenylacetamide

> <PUBCHEM_IUPAC_NAME>
N-(4-chloro-2-pyrrol-1-ylphenyl)-2-phenylacetamide

> <PUBCHEM_IUPAC_SYSTEMATIC_NAME>
N-(4-chloranyl-2-pyrrol-1-yl-phenyl)-2-phenyl-ethanamide

> <PUBCHEM_IUPAC_TRADITIONAL_NAME>
N-(4-chloro-2-pyrrol-1-yl-phenyl)-2-phenyl-acetamide

> <PUBCHEM_IUPAC_INCHI>
InChI=1S/C18H15ClN2O/c19-15-8-9-16(17(13-15)21-10-4-5-11-21)20-18(22)12-14-6-2-1-3-7-14/h1-11,13H,12H2,(H,20,22)

> <PUBCHEM_IUPAC_INCHIKEY>
BXRURHJGUBRXHN-UHFFFAOYSA-N

> <PUBCHEM_XLOGP3>
4.2

> <PUBCHEM_EXACT_MASS>
310.087291

> <PUBCHEM_MOLECULAR_FORMULA>
C18H15ClN2O

> <PUBCHEM_MOLECULAR_WEIGHT>
310.7775

> <PUBCHEM_OPENEYE_CAN_SMILES>
C1=CC=C(C=C1)CC(=O)NC2=C(C=C(C=C2)Cl)N3C=CC=C3

> <PUBCHEM_OPENEYE_ISO_SMILES>
C1=CC=C(C=C1)CC(=O)NC2=C(C=C(C=C2)Cl)N3C=CC=C3

> <PUBCHEM_CACTVS_TPSA>
34

> <PUBCHEM_MONOISOTOPIC_WEIGHT>
310.087291

> <PUBCHEM_TOTAL_CHARGE>
0

> <PUBCHEM_HEAVY_ATOM_COUNT>
22

> <PUBCHEM_ATOM_DEF_STEREO_COUNT>
0

> <PUBCHEM_ATOM_UDEF_STEREO_COUNT>
0

> <PUBCHEM_BOND_DEF_STEREO_COUNT>
0

> <PUBCHEM_BOND_UDEF_STEREO_COUNT>
0

> <PUBCHEM_ISOTOPIC_ATOM_COUNT>
0

> <PUBCHEM_COMPONENT_COUNT>
1

> <PUBCHEM_CACTVS_TAUTO_COUNT>
3

> <PUBCHEM_COORDINATE_TYPE>
1
5
255

> <PUBCHEM_BONDANNOTATIONS>
11  18  8
11  19  8
12  17  8
13  16  8
14  15  8
16  17  8
18  20  8
19  21  8
20  22  8
21  22  8
3  12  8
3  13  8
5  6  8
5  8  8
6  9  8
8  14  8
9  15  8

$$$$
56593148
  -OEChem-06181312512D

 47 49  0     1  0  0  0  0  0999 V2000
    7.6651    1.2942    0.0000 S   0  0  0  0  0  0  0  0  0  0  0  0
    5.9405    0.1162    0.0000 O   0  0  0  0  0  0  0  0  0  0  0  0
    4.6844    2.3784    0.0000 O   0  0  0  0  0  0  0  0  0  0  0  0
    3.4026    0.6205    0.0000 O   0  0  0  0  0  0  0  0  0  0  0  0
   10.9053    3.6398    0.0000 O   0  0  0  0  0  0  0  0  0  0  0  0
    9.1824    3.4617    0.0000 O   0  0  0  0  0  0  0  0  0  0  0  0
    4.6783   -1.1417    0.0000 N   0  0  0  0  0  0  0  0  0  0  0  0
    4.6783   -2.7512    0.0000 N   0  0  0  0  0  0  0  0  0  0  0  0
    2.8660   -0.9465    0.0000 N   0  0  0  0  0  0  0  0  0  0  0  0
   11.1109    1.6504    0.0000 N   0  3  0  0  0  0  0  0  0  0  0  0
    2.0000   -2.4465    0.0000 N   0  0  0  0  0  0  0  0  0  0  0  0
    2.8660   -3.9465    0.0000 N   0  0  0  0  0  0  0  0  0  0  0  0
    4.9917    1.4268    0.0000 C   0  0  1  0  0  0  0  0  0  0  0  0
    4.4026    0.6188    0.0000 C   0  0  2  0  0  0  0  0  0  0  0  0
    5.9422    1.1162    0.0000 C   0  0  1  0  0  0  0  0  0  0  0  0
    4.9889   -0.1912    0.0000 C   0  0  1  0  0  0  0  0  0  0  0  0
    6.7523    1.7025    0.0000 C   0  0  0  0  0  0  0  0  0  0  0  0
    3.7320   -1.4465    0.0000 C   0  0  0  0  0  0  0  0  0  0  0  0
    5.2619   -1.9465    0.0000 C   0  0  0  0  0  0  0  0  0  0  0  0
    8.4752    1.8806    0.0000 C   0  0  0  0  0  0  0  0  0  0  0  0
    3.7320   -2.4465    0.0000 C   0  0  0  0  0  0  0  0  0  0  0  0
    9.3880    1.4723    0.0000 C   0  0  0  0  0  0  0  0  0  0  0  0
   10.1980    2.0587    0.0000 C   0  0  1  0  0  0  0  0  0  0  0  0
    2.8660   -2.9465    0.0000 C   0  0  0  0  0  0  0  0  0  0  0  0
    2.0000   -1.4465    0.0000 C   0  0  0  0  0  0  0  0  0  0  0  0
   10.0952    3.0534    0.0000 C   0  0  0  0  0  0  0  0  0  0  0  0
    5.4309    1.8645    0.0000 H   0  0  0  0  0  0  0  0  0  0  0  0
    4.1201    0.0669    0.0000 H   0  0  0  0  0  0  0  0  0  0  0  0
    6.4942    0.8337    0.0000 H   0  0  0  0  0  0  0  0  0  0  0  0
    5.4266   -0.6304    0.0000 H   0  0  0  0  0  0  0  0  0  0  0  0
    7.0999    2.2159    0.0000 H   0  0  0  0  0  0  0  0  0  0  0  0
    6.3070    2.1340    0.0000 H   0  0  0  0  0  0  0  0  0  0  0  0
    5.1000    2.8384    0.0000 H   0  0  0  0  0  0  0  0  0  0  0  0
    3.0935    1.1580    0.0000 H   0  0  0  0  0  0  0  0  0  0  0  0
    5.8819   -1.9465    0.0000 H   0  0  0  0  0  0  0  0  0  0  0  0
    8.8227    2.3940    0.0000 H   0  0  0  0  0  0  0  0  0  0  0  0
    8.0299    2.3121    0.0000 H   0  0  0  0  0  0  0  0  0  0  0  0
    9.0404    0.9589    0.0000 H   0  0  0  0  0  0  0  0  0  0  0  0
    9.8332    1.0408    0.0000 H   0  0  0  0  0  0  0  0  0  0  0  0
   10.2618    1.4420    0.0000 H   0  0  0  0  0  0  0  0  0  0  0  0
   11.6768    1.3972    0.0000 H   0  0  0  0  0  0  0  0  0  0  0  0
   11.3640    2.2163    0.0000 H   0  0  0  0  0  0  0  0  0  0  0  0
   10.8577    1.0844    0.0000 H   0  0  0  0  0  0  0  0  0  0  0  0
    1.4631   -1.1365    0.0000 H   0  0  0  0  0  0  0  0  0  0  0  0
    2.3291   -4.2565    0.0000 H   0  0  0  0  0  0  0  0  0  0  0  0
    3.4030   -4.2565    0.0000 H   0  0  0  0  0  0  0  0  0  0  0  0
   10.8415    4.2565    0.0000 H   0  0  0  0  0  0  0  0  0  0  0  0
  1 17  1  0  0  0  0
  1 20  1  0  0  0  0
  2 15  1  0  0  0  0
  2 16  1  0  0  0  0
 13  3  1  6  0  0  0
  3 33  1  0  0  0  0
 14  4  1  6  0  0  0
  4 34  1  0  0  0  0
  5 26  1  0  0  0  0
  5 47  1  0  0  0  0
  6 26  2  0  0  0  0
 16  7  1  1  0  0  0
  7 18  1  0  0  0  0
  7 19  1  0  0  0  0
  8 19  2  0  0  0  0
  8 21  1  0  0  0  0
  9 18  2  0  0  0  0
  9 25  1  0  0  0  0
 23 10  1  1  0  0  0
 10 41  1  0  0  0  0
 10 42  1  0  0  0  0
 10 43  1  0  0  0  0
 11 24  1  0  0  0  0
 11 25  2  0  0  0  0
 12 24  1  0  0  0  0
 12 45  1  0  0  0  0
 12 46  1  0  0  0  0
 13 14  1  0  0  0  0
 13 15  1  0  0  0  0
 13 27  1  0  0  0  0
 14 16  1  0  0  0  0
 14 28  1  0  0  0  0
 15 17  1  1  0  0  0
 15 29  1  0  0  0  0
 16 30  1  0  0  0  0
 17 31  1  0  0  0  0
 17 32  1  0  0  0  0
 18 21  1  0  0  0  0
 19 35  1  0  0  0  0
 20 22  1  0  0  0  0
 20 36  1  0  0  0  0
 20 37  1  0  0  0  0
 21 24  2  0  0  0  0
 22 23  1  0  0  0  0
 22 38  1  0  0  0  0
 22 39  1  0  0  0  0
 23 26  1  0  0  0  0
 23 40  1  0  0  0  0
 25 44  1  0  0  0  0
M  CHG  1  10   1
M  END
> <PUBCHEM_COMPOUND_CID>
56593148

> <PUBCHEM_COMPOUND_CANONICALIZED>
1

> <PUBCHEM_CACTVS_COMPLEXITY>
504

> <PUBCHEM_CACTVS_HBOND_ACCEPTOR>
10

> <PUBCHEM_CACTVS_HBOND_DONOR>
5

> <PUBCHEM_CACTVS_ROTATABLE_BOND>
7

> <PUBCHEM_CACTVS_SUBSKEYS>
AAADceBzuABAAAAAAAAAAAAAAAAAAWJAAAAsAAAAAAAAAFgB+AAAHgQQCAAACDzl1waF+L9MFgioAQbxbACAgC0RELABUKGoVBCDWBJgyEAeRAgPEALzACCwAAAAAAAAAAAAAAAAAAAAAAAAAAAAAAAAAA==

> <PUBCHEM_IUPAC_OPENEYE_NAME>
[(1S)-3-[[(2S,3S,4R,5R)-5-(6-aminopurin-9-yl)-3,4-dihydroxy-tetrahydrofuran-2-yl]methylsulfanyl]-1-carboxy-propyl]ammonium

> <PUBCHEM_IUPAC_CAS_NAME>
[(1S)-3-[[(2S,3S,4R,5R)-5-(6-aminopurin-9-yl)-3,4-dihydroxy-2-oxolanyl]methylthio]-1-carboxypropyl]ammonium

> <PUBCHEM_IUPAC_NAME>
[(1S)-3-[[(2S,3S,4R,5R)-5-(6-aminopurin-9-yl)-3,4-dihydroxyoxolan-2-yl]methylsulfanyl]-1-carboxypropyl]azanium

> <PUBCHEM_IUPAC_SYSTEMATIC_NAME>
[(2S)-4-[[(2S,3S,4R,5R)-5-(6-aminopurin-9-yl)-3,4-bis(oxidanyl)oxolan-2-yl]methylsulfanyl]-1-oxidanyl-1-oxidanylidene-butan-2-yl]azanium

> <PUBCHEM_IUPAC_TRADITIONAL_NAME>
[(1S)-3-[[(2S,3S,4R,5R)-5-adenin-9-yl-3,4-dihydroxy-tetrahydrofuran-2-yl]methylthio]-1-carboxy-propyl]ammonium

> <PUBCHEM_IUPAC_INCHI>
InChI=1S/C14H20N6O5S/c15-6(14(23)24)1-2-26-3-7-9(21)10(22)13(25-7)20-5-19-8-11(16)17-4-18-12(8)20/h4-7,9-10,13,21-22H,1-3,15H2,(H,23,24)(H2,16,17,18)/p+1/t6-,7+,9+,10+,13+/m0/s1

> <PUBCHEM_IUPAC_INCHIKEY>
ZJUKTBDSGOFHSH-WFMPWKQPSA-O

> <PUBCHEM_XLOGP3>
-3.5

> <PUBCHEM_EXACT_MASS>
385.129414

> <PUBCHEM_MOLECULAR_FORMULA>
C14H21N6O5S+

> <PUBCHEM_MOLECULAR_WEIGHT>
385.41874

> <PUBCHEM_OPENEYE_CAN_SMILES>
C1=NC2=C(C(=N1)N)N=CN2C3C(C(C(O3)CSCCC(C(=O)O)[NH3+])O)O

> <PUBCHEM_OPENEYE_ISO_SMILES>
C1=NC2=C(C(=N1)N)N=CN2[C@H]3[C@@H]([C@@H]([C@H](O3)CSCC[C@@H](C(=O)O)[NH3+])O)O

> <PUBCHEM_CACTVS_TPSA>
210

> <PUBCHEM_MONOISOTOPIC_WEIGHT>
385.129414

> <PUBCHEM_TOTAL_CHARGE>
1

> <PUBCHEM_HEAVY_ATOM_COUNT>
26

> <PUBCHEM_ATOM_DEF_STEREO_COUNT>
5

> <PUBCHEM_ATOM_UDEF_STEREO_COUNT>
0

> <PUBCHEM_BOND_DEF_STEREO_COUNT>
0

> <PUBCHEM_BOND_UDEF_STEREO_COUNT>
0

> <PUBCHEM_ISOTOPIC_ATOM_COUNT>
0

> <PUBCHEM_COMPONENT_COUNT>
1

> <PUBCHEM_CACTVS_TAUTO_COUNT>
3

> <PUBCHEM_COORDINATE_TYPE>
1
5
255

> <PUBCHEM_BONDANNOTATIONS>
23  10  5
11  24  8
11  25  8
15  17  5
18  21  8
21  24  8
13  3  6
14  4  6
16  7  5
7  18  8
7  19  8
8  19  8
8  21  8
9  18  8
9  25  8

$$$$
56593176
  -OEChem-06181312512D

 41 42  0     0  0  0  0  0  0999 V2000
    6.3301   -0.2500    0.0000 O   0  0  0  0  0  0  0  0  0  0  0  0
    4.5981   -0.2500    0.0000 N   0  0  0  0  0  0  0  0  0  0  0  0
    4.5981   -1.2500    0.0000 C   0  0  0  0  0  0  0  0  0  0  0  0
    3.7320   -1.7500    0.0000 C   0  0  0  0  0  0  0  0  0  0  0  0
    5.4641   -1.7500    0.0000 C   0  0  0  0  0  0  0  0  0  0  0  0
    2.8660   -1.2500    0.0000 C   0  0  0  0  0  0  0  0  0  0  0  0
    5.4641    1.2500    0.0000 C   0  0  0  0  0  0  0  0  0  0  0  0
    3.7320   -2.7500    0.0000 C   0  0  0  0  0  0  0  0  0  0  0  0
    6.3301    1.7500    0.0000 C   0  0  0  0  0  0  0  0  0  0  0  0
    5.4641    0.2500    0.0000 C   0  0  0  0  0  0  0  0  0  0  0  0
    5.4641   -2.7500    0.0000 C   0  0  0  0  0  0  0  0  0  0  0  0
    4.5981   -3.2500    0.0000 C   0  0  0  0  0  0  0  0  0  0  0  0
    6.3301   -1.2500    0.0000 C   0  0  0  0  0  0  0  0  0  0  0  0
    2.0000   -1.7500    0.0000 C   0  0  0  0  0  0  0  0  0  0  0  0
    7.1962    1.2500    0.0000 C   0  0  0  0  0  0  0  0  0  0  0  0
    8.0622    1.7500    0.0000 C   0  0  0  0  0  0  0  0  0  0  0  0
    6.3301    2.7500    0.0000 C   0  0  0  0  0  0  0  0  0  0  0  0
    8.0622    2.7500    0.0000 C   0  0  0  0  0  0  0  0  0  0  0  0
    7.1962    3.2500    0.0000 C   0  0  0  0  0  0  0  0  0  0  0  0
    8.9282    1.2500    0.0000 C   0  0  0  0  0  0  0  0  0  0  0  0
    3.2646   -0.7751    0.0000 H   0  0  0  0  0  0  0  0  0  0  0  0
    2.4675   -0.7751    0.0000 H   0  0  0  0  0  0  0  0  0  0  0  0
    5.2520    1.8326    0.0000 H   0  0  0  0  0  0  0  0  0  0  0  0
    4.8535    1.1423    0.0000 H   0  0  0  0  0  0  0  0  0  0  0  0
    4.0611    0.0600    0.0000 H   0  0  0  0  0  0  0  0  0  0  0  0
    3.1951   -3.0600    0.0000 H   0  0  0  0  0  0  0  0  0  0  0  0
    6.0010   -3.0600    0.0000 H   0  0  0  0  0  0  0  0  0  0  0  0
    4.5981   -3.8700    0.0000 H   0  0  0  0  0  0  0  0  0  0  0  0
    6.6401   -1.7869    0.0000 H   0  0  0  0  0  0  0  0  0  0  0  0
    6.8671   -0.9400    0.0000 H   0  0  0  0  0  0  0  0  0  0  0  0
    6.0201   -0.7131    0.0000 H   0  0  0  0  0  0  0  0  0  0  0  0
    1.6900   -1.2131    0.0000 H   0  0  0  0  0  0  0  0  0  0  0  0
    1.4631   -2.0600    0.0000 H   0  0  0  0  0  0  0  0  0  0  0  0
    2.3100   -2.2869    0.0000 H   0  0  0  0  0  0  0  0  0  0  0  0
    7.1962    0.6300    0.0000 H   0  0  0  0  0  0  0  0  0  0  0  0
    5.7932    3.0600    0.0000 H   0  0  0  0  0  0  0  0  0  0  0  0
    8.5991    3.0600    0.0000 H   0  0  0  0  0  0  0  0  0  0  0  0
    7.1962    3.8700    0.0000 H   0  0  0  0  0  0  0  0  0  0  0  0
    8.6182    0.7131    0.0000 H   0  0  0  0  0  0  0  0  0  0  0  0
    9.4651    0.9400    0.0000 H   0  0  0  0  0  0  0  0  0  0  0  0
    9.2382    1.7869    0.0000 H   0  0  0  0  0  0  0  0  0  0  0  0
  1 10  2  0  0  0  0
  2  3  1  0  0  0  0
  2 10  1  0  0  0  0
  2 25  1  0  0  0  0
  3  4  1  0  0  0  0
  3  5  2  0  0  0  0
  4  6  1  0  0  0  0
  4  8  2  0  0  0  0
  5 11  1  0  0  0  0
  5 13  1  0  0  0  0
  6 14  1  0  0  0  0
  6 21  1  0  0  0  0
  6 22  1  0  0  0  0
  7  9  1  0  0  0  0
  7 10  1  0  0  0  0
  7 23  1  0  0  0  0
  7 24  1  0  0  0  0
  8 12  1  0  0  0  0
  8 26  1  0  0  0  0
  9 15  1  0  0  0  0
  9 17  2  0  0  0  0
 11 12  2  0  0  0  0
 11 27  1  0  0  0  0
 12 28  1  0  0  0  0
 13 29  1  0  0  0  0
 13 30  1  0  0  0  0
 13 31  1  0  0  0  0
 14 32  1  0  0  0  0
 14 33  1  0  0  0  0
 14 34  1  0  0  0  0
 15 16  2  0  0  0  0
 15 35  1  0  0  0  0
 16 18  1  0  0  0  0
 16 20  1  0  0  0  0
 17 19  1  0  0  0  0
 17 36  1  0  0  0  0
 18 19  2  0  0  0  0
 18 37  1  0  0  0  0
 19 38  1  0  0  0  0
 20 39  1  0  0  0  0
 20 40  1  0  0  0  0
 20 41  1  0  0  0  0
M  END
> <PUBCHEM_COMPOUND_CID>
56593176

> <PUBCHEM_COMPOUND_CANONICALIZED>
1

> <PUBCHEM_CACTVS_COMPLEXITY>
315

> <PUBCHEM_CACTVS_HBOND_ACCEPTOR>
1

> <PUBCHEM_CACTVS_HBOND_DONOR>
1

> <PUBCHEM_CACTVS_ROTATABLE_BOND>
4

> <PUBCHEM_CACTVS_SUBSKEYS>
AAADceB6IAAAAAAAAAAAAAAAAAAAAAAAAAAwYAAAAAAAAAABQAAAHgAQAAAADAiBmAAywILAAACIAiVSUACCAAAhAAAIiAEARIgIIDLAlZGEIAhglADIyAcYiMCOAAACAAACAAAAAAQAAAQAAAAAAAAAAA==

> <PUBCHEM_IUPAC_OPENEYE_NAME>
N-(2-ethyl-6-methyl-phenyl)-2-(m-tolyl)acetamide

> <PUBCHEM_IUPAC_CAS_NAME>
N-(2-ethyl-6-methylphenyl)-2-(3-methylphenyl)acetamide

> <PUBCHEM_IUPAC_NAME>
N-(2-ethyl-6-methylphenyl)-2-(3-methylphenyl)acetamide

> <PUBCHEM_IUPAC_SYSTEMATIC_NAME>
N-(2-ethyl-6-methyl-phenyl)-2-(3-methylphenyl)ethanamide

> <PUBCHEM_IUPAC_TRADITIONAL_NAME>
N-(2-ethyl-6-methyl-phenyl)-2-(m-tolyl)acetamide

> <PUBCHEM_IUPAC_INCHI>
InChI=1S/C18H21NO/c1-4-16-10-6-8-14(3)18(16)19-17(20)12-15-9-5-7-13(2)11-15/h5-11H,4,12H2,1-3H3,(H,19,20)

> <PUBCHEM_IUPAC_INCHIKEY>
VGWHBHYVCCQOGR-UHFFFAOYSA-N

> <PUBCHEM_XLOGP3>
3.4

> <PUBCHEM_EXACT_MASS>
267.162314

> <PUBCHEM_MOLECULAR_FORMULA>
C18H21NO

> <PUBCHEM_MOLECULAR_WEIGHT>
267.36544

> <PUBCHEM_OPENEYE_CAN_SMILES>
CCC1=CC=CC(=C1NC(=O)CC2=CC=CC(=C2)C)C

> <PUBCHEM_OPENEYE_ISO_SMILES>
CCC1=CC=CC(=C1NC(=O)CC2=CC=CC(=C2)C)C

> <PUBCHEM_CACTVS_TPSA>
29.1

> <PUBCHEM_MONOISOTOPIC_WEIGHT>
267.162314

> <PUBCHEM_TOTAL_CHARGE>
0

> <PUBCHEM_HEAVY_ATOM_COUNT>
20

> <PUBCHEM_ATOM_DEF_STEREO_COUNT>
0

> <PUBCHEM_ATOM_UDEF_STEREO_COUNT>
0

> <PUBCHEM_BOND_DEF_STEREO_COUNT>
0

> <PUBCHEM_BOND_UDEF_STEREO_COUNT>
0

> <PUBCHEM_ISOTOPIC_ATOM_COUNT>
0

> <PUBCHEM_COMPONENT_COUNT>
1

> <PUBCHEM_CACTVS_TAUTO_COUNT>
3

> <PUBCHEM_COORDINATE_TYPE>
1
5
255

> <PUBCHEM_BONDANNOTATIONS>
11  12  8
15  16  8
16  18  8
17  19  8
18  19  8
3  4  8
3  5  8
4  8  8
5  11  8
8  12  8
9  15  8
9  17  8

$$$$
