56209813
  -OEChem-11301218102D

 44 46  0     0  0  0  0  0  0999 V2000
    9.4778    4.2603    0.0000 Br  0  0  0  0  0  0  0  0  0  0  0  0
    7.9244   -0.4923    0.0000 O   0  0  0  0  0  0  0  0  0  0  0  0
    4.6783   -3.6710    0.0000 N   0  0  0  0  0  0  0  0  0  0  0  0
    6.2781    0.0458    0.0000 N   0  0  0  0  0  0  0  0  0  0  0  0
    7.5673    1.2025    0.0000 N   0  0  0  0  0  0  0  0  0  0  0  0
    4.6783   -2.0615    0.0000 C   0  0  0  0  0  0  0  0  0  0  0  0
    4.9889   -1.1110    0.0000 C   0  0  0  0  0  0  0  0  0  0  0  0
    3.7320   -2.3662    0.0000 C   0  0  0  0  0  0  0  0  0  0  0  0
    3.7320   -3.3662    0.0000 C   0  0  0  0  0  0  0  0  0  0  0  0
    5.9674   -0.9048    0.0000 C   0  0  0  0  0  0  0  0  0  0  0  0
    5.2619   -2.8662    0.0000 C   0  0  0  0  0  0  0  0  0  0  0  0
    2.8660   -1.8662    0.0000 C   0  0  0  0  0  0  0  0  0  0  0  0
    2.8660   -3.8662    0.0000 C   0  0  0  0  0  0  0  0  0  0  0  0
    8.8564    2.3592    0.0000 C   0  0  0  0  0  0  0  0  0  0  0  0
    8.5458    1.4087    0.0000 C   0  0  0  0  0  0  0  0  0  0  0  0
    2.0000   -2.3662    0.0000 C   0  0  0  0  0  0  0  0  0  0  0  0
    9.8349    2.5655    0.0000 C   0  0  0  0  0  0  0  0  0  0  0  0
    2.0000   -3.3662    0.0000 C   0  0  0  0  0  0  0  0  0  0  0  0
    7.2566    0.2520    0.0000 C   0  0  0  0  0  0  0  0  0  0  0  0
   10.1456    3.5160    0.0000 C   0  0  0  0  0  0  0  0  0  0  0  0
   10.5028    1.8212    0.0000 C   0  0  0  0  0  0  0  0  0  0  0  0
   11.1241    3.7222    0.0000 C   0  0  0  0  0  0  0  0  0  0  0  0
   11.4813    2.0274    0.0000 C   0  0  0  0  0  0  0  0  0  0  0  0
   11.7920    2.9779    0.0000 C   0  0  0  0  0  0  0  0  0  0  0  0
    4.9684   -0.4913    0.0000 H   0  0  0  0  0  0  0  0  0  0  0  0
    4.3751   -1.0236    0.0000 H   0  0  0  0  0  0  0  0  0  0  0  0
    5.9880   -1.5244    0.0000 H   0  0  0  0  0  0  0  0  0  0  0  0
    6.5812   -0.9921    0.0000 H   0  0  0  0  0  0  0  0  0  0  0  0
    5.8819   -2.8662    0.0000 H   0  0  0  0  0  0  0  0  0  0  0  0
    4.8709   -4.2603    0.0000 H   0  0  0  0  0  0  0  0  0  0  0  0
    2.8660   -1.2462    0.0000 H   0  0  0  0  0  0  0  0  0  0  0  0
    8.8359    2.9789    0.0000 H   0  0  0  0  0  0  0  0  0  0  0  0
    8.2426    2.4466    0.0000 H   0  0  0  0  0  0  0  0  0  0  0  0
    2.8660   -4.4862    0.0000 H   0  0  0  0  0  0  0  0  0  0  0  0
    5.8640    0.5072    0.0000 H   0  0  0  0  0  0  0  0  0  0  0  0
    8.5663    0.7891    0.0000 H   0  0  0  0  0  0  0  0  0  0  0  0
    9.1596    1.3214    0.0000 H   0  0  0  0  0  0  0  0  0  0  0  0
    1.4631   -2.0562    0.0000 H   0  0  0  0  0  0  0  0  0  0  0  0
    1.4631   -3.6762    0.0000 H   0  0  0  0  0  0  0  0  0  0  0  0
    7.1532    1.6640    0.0000 H   0  0  0  0  0  0  0  0  0  0  0  0
   10.3102    1.2318    0.0000 H   0  0  0  0  0  0  0  0  0  0  0  0
   11.3167    4.3115    0.0000 H   0  0  0  0  0  0  0  0  0  0  0  0
   11.8954    1.5659    0.0000 H   0  0  0  0  0  0  0  0  0  0  0  0
   12.3986    3.1058    0.0000 H   0  0  0  0  0  0  0  0  0  0  0  0
  1 20  1  0  0  0  0
  2 19  2  0  0  0  0
  3  9  1  0  0  0  0
  3 11  1  0  0  0  0
  3 30  1  0  0  0  0
  4 10  1  0  0  0  0
  4 19  1  0  0  0  0
  4 35  1  0  0  0  0
  5 15  1  0  0  0  0
  5 19  1  0  0  0  0
  5 40  1  0  0  0  0
  6  7  1  0  0  0  0
  6  8  1  0  0  0  0
  6 11  2  0  0  0  0
  7 10  1  0  0  0  0
  7 25  1  0  0  0  0
  7 26  1  0  0  0  0
  8  9  1  0  0  0  0
  8 12  2  0  0  0  0
  9 13  2  0  0  0  0
 10 27  1  0  0  0  0
 10 28  1  0  0  0  0
 11 29  1  0  0  0  0
 12 16  1  0  0  0  0
 12 31  1  0  0  0  0
 13 18  1  0  0  0  0
 13 34  1  0  0  0  0
 14 15  1  0  0  0  0
 14 17  1  0  0  0  0
 14 32  1  0  0  0  0
 14 33  1  0  0  0  0
 15 36  1  0  0  0  0
 15 37  1  0  0  0  0
 16 18  2  0  0  0  0
 16 38  1  0  0  0  0
 17 20  1  0  0  0  0
 17 21  2  0  0  0  0
 18 39  1  0  0  0  0
 20 22  2  0  0  0  0
 21 23  1  0  0  0  0
 21 41  1  0  0  0  0
 22 24  1  0  0  0  0
 22 42  1  0  0  0  0
 23 24  2  0  0  0  0
 23 43  1  0  0  0  0
 24 44  1  0  0  0  0
M  END
> <PUBCHEM_COMPOUND_CID>
56209813

> <PUBCHEM_COMPOUND_CANONICALIZED>
1

> <PUBCHEM_CACTVS_COMPLEXITY>
406

> <PUBCHEM_CACTVS_HBOND_ACCEPTOR>
1

> <PUBCHEM_CACTVS_HBOND_DONOR>
3

> <PUBCHEM_CACTVS_ROTATABLE_BOND>
6

> <PUBCHEM_CACTVS_SUBSKEYS>
AAADceB7IAAAEAAAAAAAAAAAAAAAAWAAAAAwYAAAAAAAAFgB9AAAHgBQAAABrAjBHgQ9wPLJkACoAzRnVACCgCAxAiQI2aA4ZLiIIOLAkZGEIAholgLIyhcQgMAOgAAAAAACgAAAAAAAAAUAAAAAAAAAAA==

> <PUBCHEM_IUPAC_OPENEYE_NAME>
1-[2-(2-bromophenyl)ethyl]-3-[2-(1H-indol-3-yl)ethyl]urea

> <PUBCHEM_IUPAC_CAS_NAME>
1-[2-(2-bromophenyl)ethyl]-3-[2-(1H-indol-3-yl)ethyl]urea

> <PUBCHEM_IUPAC_NAME>
1-[2-(2-bromophenyl)ethyl]-3-[2-(1H-indol-3-yl)ethyl]urea

> <PUBCHEM_IUPAC_SYSTEMATIC_NAME>
1-[2-(2-bromophenyl)ethyl]-3-[2-(1H-indol-3-yl)ethyl]urea

> <PUBCHEM_IUPAC_TRADITIONAL_NAME>
1-[2-(2-bromophenyl)ethyl]-3-[2-(1H-indol-3-yl)ethyl]urea

> <PUBCHEM_IUPAC_INCHI>
InChI=1S/C19H20BrN3O/c20-17-7-3-1-5-14(17)9-11-21-19(24)22-12-10-15-13-23-18-8-4-2-6-16(15)18/h1-8,13,23H,9-12H2,(H2,21,22,24)

> <PUBCHEM_IUPAC_INCHIKEY>
ASDLLBQPTWDNFD-UHFFFAOYSA-N

> <PUBCHEM_XLOGP3>
4.3

> <PUBCHEM_EXACT_MASS>
385.078974

> <PUBCHEM_MOLECULAR_FORMULA>
C19H20BrN3O

> <PUBCHEM_MOLECULAR_WEIGHT>
386.2856

> <PUBCHEM_OPENEYE_CAN_SMILES>
C1=CC=C(C(=C1)CCNC(=O)NCCC2=CNC3=CC=CC=C32)Br

> <PUBCHEM_OPENEYE_ISO_SMILES>
C1=CC=C(C(=C1)CCNC(=O)NCCC2=CNC3=CC=CC=C32)Br

> <PUBCHEM_CACTVS_TPSA>
56.9

> <PUBCHEM_MONOISOTOPIC_WEIGHT>
385.078974

> <PUBCHEM_TOTAL_CHARGE>
0

> <PUBCHEM_HEAVY_ATOM_COUNT>
24

> <PUBCHEM_ATOM_DEF_STEREO_COUNT>
0

> <PUBCHEM_ATOM_UDEF_STEREO_COUNT>
0

> <PUBCHEM_BOND_DEF_STEREO_COUNT>
0

> <PUBCHEM_BOND_UDEF_STEREO_COUNT>
0

> <PUBCHEM_ISOTOPIC_ATOM_COUNT>
0

> <PUBCHEM_COMPONENT_COUNT>
1

> <PUBCHEM_CACTVS_TAUTO_COUNT>
3

> <PUBCHEM_COORDINATE_TYPE>
1
5
255

> <PUBCHEM_BONDANNOTATIONS>
12  16  8
13  18  8
16  18  8
17  20  8
17  21  8
20  22  8
21  23  8
22  24  8
23  24  8
3  11  8
3  9  8
6  11  8
6  8  8
8  12  8
8  9  8
9  13  8

$$$$
56221762
  -OEChem-11301218102D

 42 44  0     0  0  0  0  0  0999 V2000
   10.5493    0.4985    0.0000 Cl  0  0  0  0  0  0  0  0  0  0  0  0
   11.1706    2.3995    0.0000 Cl  0  0  0  0  0  0  0  0  0  0  0  0
    6.6353   -0.3264    0.0000 O   0  0  0  0  0  0  0  0  0  0  0  0
    6.2781    1.3684    0.0000 N   0  0  0  0  0  0  0  0  0  0  0  0
    4.6783   -2.3483    0.0000 N   0  0  0  0  0  0  0  0  0  0  0  0
    7.2566    1.5747    0.0000 C   0  0  0  0  0  0  0  0  0  0  0  0
    8.2351    1.7809    0.0000 C   0  0  0  0  0  0  0  0  0  0  0  0
    7.0504    2.5532    0.0000 C   0  0  0  0  0  0  0  0  0  0  0  0
    7.4628    0.5961    0.0000 C   0  0  0  0  0  0  0  0  0  0  0  0
    4.9889    0.2117    0.0000 C   0  0  0  0  0  0  0  0  0  0  0  0
    4.6783   -0.7388    0.0000 C   0  0  0  0  0  0  0  0  0  0  0  0
    5.9674    0.4179    0.0000 C   0  0  0  0  0  0  0  0  0  0  0  0
    3.7320   -1.0436    0.0000 C   0  0  0  0  0  0  0  0  0  0  0  0
    8.9030    1.0366    0.0000 C   0  0  0  0  0  0  0  0  0  0  0  0
    8.5458    2.7314    0.0000 C   0  0  0  0  0  0  0  0  0  0  0  0
    3.7320   -2.0436    0.0000 C   0  0  0  0  0  0  0  0  0  0  0  0
    5.2619   -1.5436    0.0000 C   0  0  0  0  0  0  0  0  0  0  0  0
    2.8660   -0.5436    0.0000 C   0  0  0  0  0  0  0  0  0  0  0  0
    9.8815    1.2428    0.0000 C   0  0  0  0  0  0  0  0  0  0  0  0
    9.5243    2.9376    0.0000 C   0  0  0  0  0  0  0  0  0  0  0  0
    2.8660   -2.5436    0.0000 C   0  0  0  0  0  0  0  0  0  0  0  0
   10.1921    2.1933    0.0000 C   0  0  0  0  0  0  0  0  0  0  0  0
    2.0000   -1.0436    0.0000 C   0  0  0  0  0  0  0  0  0  0  0  0
    2.0000   -2.0436    0.0000 C   0  0  0  0  0  0  0  0  0  0  0  0
    5.8640    1.8299    0.0000 H   0  0  0  0  0  0  0  0  0  0  0  0
    7.6571    2.6810    0.0000 H   0  0  0  0  0  0  0  0  0  0  0  0
    6.8562    0.4683    0.0000 H   0  0  0  0  0  0  0  0  0  0  0  0
    7.5907   -0.0105    0.0000 H   0  0  0  0  0  0  0  0  0  0  0  0
    8.0695    0.7240    0.0000 H   0  0  0  0  0  0  0  0  0  0  0  0
    6.9225    3.1598    0.0000 H   0  0  0  0  0  0  0  0  0  0  0  0
    6.4437    2.4253    0.0000 H   0  0  0  0  0  0  0  0  0  0  0  0
    4.9684    0.8314    0.0000 H   0  0  0  0  0  0  0  0  0  0  0  0
    4.3751    0.2990    0.0000 H   0  0  0  0  0  0  0  0  0  0  0  0
    8.7104    0.4472    0.0000 H   0  0  0  0  0  0  0  0  0  0  0  0
    8.1317    3.1929    0.0000 H   0  0  0  0  0  0  0  0  0  0  0  0
    5.8819   -1.5436    0.0000 H   0  0  0  0  0  0  0  0  0  0  0  0
    4.8709   -2.9376    0.0000 H   0  0  0  0  0  0  0  0  0  0  0  0
    2.8660    0.0764    0.0000 H   0  0  0  0  0  0  0  0  0  0  0  0
    9.7169    3.5269    0.0000 H   0  0  0  0  0  0  0  0  0  0  0  0
    2.8660   -3.1636    0.0000 H   0  0  0  0  0  0  0  0  0  0  0  0
    1.4631   -0.7336    0.0000 H   0  0  0  0  0  0  0  0  0  0  0  0
    1.4631   -2.3536    0.0000 H   0  0  0  0  0  0  0  0  0  0  0  0
  1 19  1  0  0  0  0
  2 22  1  0  0  0  0
  3 12  2  0  0  0  0
  4  6  1  0  0  0  0
  4 12  1  0  0  0  0
  4 25  1  0  0  0  0
  5 16  1  0  0  0  0
  5 17  1  0  0  0  0
  5 37  1  0  0  0  0
  6  7  1  0  0  0  0
  6  8  1  0  0  0  0
  6  9  1  0  0  0  0
  7 14  2  0  0  0  0
  7 15  1  0  0  0  0
  8 26  1  0  0  0  0
  8 30  1  0  0  0  0
  8 31  1  0  0  0  0
  9 27  1  0  0  0  0
  9 28  1  0  0  0  0
  9 29  1  0  0  0  0
 10 11  1  0  0  0  0
 10 12  1  0  0  0  0
 10 32  1  0  0  0  0
 10 33  1  0  0  0  0
 11 13  1  0  0  0  0
 11 17  2  0  0  0  0
 13 16  1  0  0  0  0
 13 18  2  0  0  0  0
 14 19  1  0  0  0  0
 14 34  1  0  0  0  0
 15 20  2  0  0  0  0
 15 35  1  0  0  0  0
 16 21  2  0  0  0  0
 17 36  1  0  0  0  0
 18 23  1  0  0  0  0
 18 38  1  0  0  0  0
 19 22  2  0  0  0  0
 20 22  1  0  0  0  0
 20 39  1  0  0  0  0
 21 24  1  0  0  0  0
 21 40  1  0  0  0  0
 23 24  2  0  0  0  0
 23 41  1  0  0  0  0
 24 42  1  0  0  0  0
M  END
> <PUBCHEM_COMPOUND_CID>
56221762

> <PUBCHEM_COMPOUND_CANONICALIZED>
1

> <PUBCHEM_CACTVS_COMPLEXITY>
457

> <PUBCHEM_CACTVS_HBOND_ACCEPTOR>
1

> <PUBCHEM_CACTVS_HBOND_DONOR>
2

> <PUBCHEM_CACTVS_ROTATABLE_BOND>
4

> <PUBCHEM_CACTVS_SUBSKEYS>
AAADceB7IAAGAAAAAAAAAAAAAAAAAWAAAAAwYAAAAAAAAFgB9AAAHgIQAAAADIrBniQ+wPLJkACoAzV3VACCgCAxByAI2+E4ZpgIIPLBl5GEIAhglADIyAccicCehAAAIAACAAQIAABAAAQACAAAAAAAAA==

> <PUBCHEM_IUPAC_OPENEYE_NAME>
N-[1-(3,4-dichlorophenyl)-1-methyl-ethyl]-2-(1H-indol-3-yl)acetamide

> <PUBCHEM_IUPAC_CAS_NAME>
N-[2-(3,4-dichlorophenyl)propan-2-yl]-2-(1H-indol-3-yl)acetamide

> <PUBCHEM_IUPAC_NAME>
N-[2-(3,4-dichlorophenyl)propan-2-yl]-2-(1H-indol-3-yl)acetamide

> <PUBCHEM_IUPAC_SYSTEMATIC_NAME>
N-[2-(3,4-dichlorophenyl)propan-2-yl]-2-(1H-indol-3-yl)ethanamide

> <PUBCHEM_IUPAC_TRADITIONAL_NAME>
N-[1-(3,4-dichlorophenyl)-1-methyl-ethyl]-2-(1H-indol-3-yl)acetamide

> <PUBCHEM_IUPAC_INCHI>
InChI=1S/C19H18Cl2N2O/c1-19(2,13-7-8-15(20)16(21)10-13)23-18(24)9-12-11-22-17-6-4-3-5-14(12)17/h3-8,10-11,22H,9H2,1-2H3,(H,23,24)

> <PUBCHEM_IUPAC_INCHIKEY>
OCKUXGBSTXVWGS-UHFFFAOYSA-N

> <PUBCHEM_XLOGP3>
4.5

> <PUBCHEM_EXACT_MASS>
360.079619

> <PUBCHEM_MOLECULAR_FORMULA>
C19H18Cl2N2O

> <PUBCHEM_MOLECULAR_WEIGHT>
361.26502

> <PUBCHEM_OPENEYE_CAN_SMILES>
CC(C)(C1=CC(=C(C=C1)Cl)Cl)NC(=O)CC2=CNC3=CC=CC=C32

> <PUBCHEM_OPENEYE_ISO_SMILES>
CC(C)(C1=CC(=C(C=C1)Cl)Cl)NC(=O)CC2=CNC3=CC=CC=C32

> <PUBCHEM_CACTVS_TPSA>
44.9

> <PUBCHEM_MONOISOTOPIC_WEIGHT>
360.079619

> <PUBCHEM_TOTAL_CHARGE>
0

> <PUBCHEM_HEAVY_ATOM_COUNT>
24

> <PUBCHEM_ATOM_DEF_STEREO_COUNT>
0

> <PUBCHEM_ATOM_UDEF_STEREO_COUNT>
0

> <PUBCHEM_BOND_DEF_STEREO_COUNT>
0

> <PUBCHEM_BOND_UDEF_STEREO_COUNT>
0

> <PUBCHEM_ISOTOPIC_ATOM_COUNT>
0

> <PUBCHEM_COMPONENT_COUNT>
1

> <PUBCHEM_CACTVS_TAUTO_COUNT>
2

> <PUBCHEM_COORDINATE_TYPE>
1
5
255

> <PUBCHEM_BONDANNOTATIONS>
11  13  8
11  17  8
13  16  8
13  18  8
14  19  8
15  20  8
16  21  8
18  23  8
19  22  8
20  22  8
21  24  8
23  24  8
5  16  8
5  17  8
7  14  8
7  15  8

$$$$
