30076208
  -OEChem-03061302102D

 26 27  0     0  0  0  0  0  0999 V2000
    2.0000   -2.1230    0.0000 O   0  0  0  0  0  0  0  0  0  0  0  0
    4.5981    1.3770    0.0000 N   0  3  0  0  0  0  0  0  0  0  0  0
    5.4641    1.8770    0.0000 C   0  0  0  0  0  0  0  0  0  0  0  0
    6.4641    1.8770    0.0000 C   0  0  0  0  0  0  0  0  0  0  0  0
    5.9641    2.7430    0.0000 C   0  0  0  0  0  0  0  0  0  0  0  0
    3.7320    0.8770    0.0000 C   0  0  0  0  0  0  0  0  0  0  0  0
    3.7320   -0.1230    0.0000 C   0  0  0  0  0  0  0  0  0  0  0  0
    2.8660   -0.6230    0.0000 C   0  0  0  0  0  0  0  0  0  0  0  0
    4.5981   -0.6230    0.0000 C   0  0  0  0  0  0  0  0  0  0  0  0
    2.8660   -1.6230    0.0000 C   0  0  0  0  0  0  0  0  0  0  0  0
    4.5981   -1.6230    0.0000 C   0  0  0  0  0  0  0  0  0  0  0  0
    3.7320   -2.1230    0.0000 C   0  0  0  0  0  0  0  0  0  0  0  0
    5.6246    1.2781    0.0000 H   0  0  0  0  0  0  0  0  0  0  0  0
    6.5718    1.2664    0.0000 H   0  0  0  0  0  0  0  0  0  0  0  0
    7.0467    2.0890    0.0000 H   0  0  0  0  0  0  0  0  0  0  0  0
    6.4390    3.1415    0.0000 H   0  0  0  0  0  0  0  0  0  0  0  0
    5.4892    3.1415    0.0000 H   0  0  0  0  0  0  0  0  0  0  0  0
    4.2881    1.9139    0.0000 H   0  0  0  0  0  0  0  0  0  0  0  0
    4.9081    0.8401    0.0000 H   0  0  0  0  0  0  0  0  0  0  0  0
    3.5200    1.4596    0.0000 H   0  0  0  0  0  0  0  0  0  0  0  0
    3.1215    0.7693    0.0000 H   0  0  0  0  0  0  0  0  0  0  0  0
    2.3291   -0.3130    0.0000 H   0  0  0  0  0  0  0  0  0  0  0  0
    5.1350   -0.3130    0.0000 H   0  0  0  0  0  0  0  0  0  0  0  0
    5.1350   -1.9330    0.0000 H   0  0  0  0  0  0  0  0  0  0  0  0
    3.7320   -2.7430    0.0000 H   0  0  0  0  0  0  0  0  0  0  0  0
    2.0000   -2.7430    0.0000 H   0  0  0  0  0  0  0  0  0  0  0  0
  1 10  1  0  0  0  0
  1 26  1  0  0  0  0
  2  3  1  0  0  0  0
  2  6  1  0  0  0  0
  2 18  1  0  0  0  0
  2 19  1  0  0  0  0
  3  4  1  0  0  0  0
  3  5  1  0  0  0  0
  3 13  1  0  0  0  0
  4  5  1  0  0  0  0
  4 14  1  0  0  0  0
  4 15  1  0  0  0  0
  5 16  1  0  0  0  0
  5 17  1  0  0  0  0
  6  7  1  0  0  0  0
  6 20  1  0  0  0  0
  6 21  1  0  0  0  0
  7  8  2  0  0  0  0
  7  9  1  0  0  0  0
  8 10  1  0  0  0  0
  8 22  1  0  0  0  0
  9 11  2  0  0  0  0
  9 23  1  0  0  0  0
 10 12  2  0  0  0  0
 11 12  1  0  0  0  0
 11 24  1  0  0  0  0
 12 25  1  0  0  0  0
M  CHG  1   2   1
M  END
> <PUBCHEM_COMPOUND_CID>
30076208

> <PUBCHEM_COMPOUND_CANONICALIZED>
1

> <PUBCHEM_CACTVS_COMPLEXITY>
145

> <PUBCHEM_CACTVS_HBOND_ACCEPTOR>
1

> <PUBCHEM_CACTVS_HBOND_DONOR>
2

> <PUBCHEM_CACTVS_ROTATABLE_BOND>
3

> <PUBCHEM_CACTVS_SUBSKEYS>
AAADccByIAAAAAAAAAAAAAAAGAAAAAAAAAAwAAAAAAAAAAABAAAAHgAQCAAADCzBmAQwBoLAAgCAAiBCAACCAAAgIAAIiIAODIgIJiKCkROEcAhk0BGImAewwBAOAAABAAAAAAAAAAIAAAAAAAAAAAAAAA==

> <PUBCHEM_IUPAC_OPENEYE_NAME>
cyclopropyl-[(3-hydroxyphenyl)methyl]ammonium

> <PUBCHEM_IUPAC_CAS_NAME>
cyclopropyl-[(3-hydroxyphenyl)methyl]ammonium

> <PUBCHEM_IUPAC_NAME>
cyclopropyl-[(3-hydroxyphenyl)methyl]azanium

> <PUBCHEM_IUPAC_SYSTEMATIC_NAME>
cyclopropyl-[(3-hydroxyphenyl)methyl]azanium

> <PUBCHEM_IUPAC_TRADITIONAL_NAME>
cyclopropyl-(3-hydroxybenzyl)ammonium

> <PUBCHEM_IUPAC_INCHI>
InChI=1S/C10H13NO/c12-10-3-1-2-8(6-10)7-11-9-4-5-9/h1-3,6,9,11-12H,4-5,7H2/p+1

> <PUBCHEM_IUPAC_INCHIKEY>
SIJJRPGHOJKDOF-UHFFFAOYSA-O

> <PUBCHEM_XLOGP3>
1.3

> <PUBCHEM_EXACT_MASS>
164.107539

> <PUBCHEM_MOLECULAR_FORMULA>
C10H14NO+

> <PUBCHEM_MOLECULAR_WEIGHT>
164.22426

> <PUBCHEM_OPENEYE_CAN_SMILES>
C1CC1[NH2+]CC2=CC(=CC=C2)O

> <PUBCHEM_OPENEYE_ISO_SMILES>
C1CC1[NH2+]CC2=CC(=CC=C2)O

> <PUBCHEM_CACTVS_TPSA>
36.8

> <PUBCHEM_MONOISOTOPIC_WEIGHT>
164.107539

> <PUBCHEM_TOTAL_CHARGE>
1

> <PUBCHEM_HEAVY_ATOM_COUNT>
12

> <PUBCHEM_ATOM_DEF_STEREO_COUNT>
0

> <PUBCHEM_ATOM_UDEF_STEREO_COUNT>
0

> <PUBCHEM_BOND_DEF_STEREO_COUNT>
0

> <PUBCHEM_BOND_UDEF_STEREO_COUNT>
0

> <PUBCHEM_ISOTOPIC_ATOM_COUNT>
0

> <PUBCHEM_COMPONENT_COUNT>
1

> <PUBCHEM_CACTVS_TAUTO_COUNT>
3

> <PUBCHEM_COORDINATE_TYPE>
1
5
255

> <PUBCHEM_BONDANNOTATIONS>
10  12  8
11  12  8
7  8  8
7  9  8
8  10  8
9  11  8

$$$$
30081337
  -OEChem-03061302102D

 34 34  0     1  0  0  0  0  0999 V2000
    6.0841    0.8100    0.0000 O   0  0  0  0  0  0  0  0  0  0  0  0
    4.3520    0.8100    0.0000 N   0  0  0  0  0  0  0  0  0  0  0  0
    2.6200   -3.1900    0.0000 N   0  3  0  0  0  0  0  0  0  0  0  0
    5.2181    2.3100    0.0000 C   0  0  2  0  0  0  0  0  0  0  0  0
    6.0841    2.8100    0.0000 C   0  0  0  0  0  0  0  0  0  0  0  0
    5.2181    1.3100    0.0000 C   0  0  0  0  0  0  0  0  0  0  0  0
    4.3520    2.8100    0.0000 C   0  0  0  0  0  0  0  0  0  0  0  0
    4.3520   -0.1900    0.0000 C   0  0  0  0  0  0  0  0  0  0  0  0
    3.4860   -1.6900    0.0000 C   0  0  0  0  0  0  0  0  0  0  0  0
    6.0841    3.8100    0.0000 C   0  0  0  0  0  0  0  0  0  0  0  0
    3.4860   -0.6900    0.0000 C   0  0  0  0  0  0  0  0  0  0  0  0
    2.6200   -2.1900    0.0000 C   0  0  0  0  0  0  0  0  0  0  0  0
    5.2181   -0.6900    0.0000 C   0  0  0  0  0  0  0  0  0  0  0  0
    4.3520   -2.1900    0.0000 C   0  0  0  0  0  0  0  0  0  0  0  0
    5.2181   -1.6900    0.0000 C   0  0  0  0  0  0  0  0  0  0  0  0
    5.2181    2.9300    0.0000 H   0  0  0  0  0  0  0  0  0  0  0  0
    6.2962    2.2274    0.0000 H   0  0  0  0  0  0  0  0  0  0  0  0
    6.6947    2.9177    0.0000 H   0  0  0  0  0  0  0  0  0  0  0  0
    4.6620    3.3469    0.0000 H   0  0  0  0  0  0  0  0  0  0  0  0
    3.8151    3.1200    0.0000 H   0  0  0  0  0  0  0  0  0  0  0  0
    4.0420    2.2731    0.0000 H   0  0  0  0  0  0  0  0  0  0  0  0
    3.8151    1.1200    0.0000 H   0  0  0  0  0  0  0  0  0  0  0  0
    6.7041    3.8100    0.0000 H   0  0  0  0  0  0  0  0  0  0  0  0
    6.0841    4.4300    0.0000 H   0  0  0  0  0  0  0  0  0  0  0  0
    5.4641    3.8100    0.0000 H   0  0  0  0  0  0  0  0  0  0  0  0
    2.9491   -0.3800    0.0000 H   0  0  0  0  0  0  0  0  0  0  0  0
    2.4080   -1.6074    0.0000 H   0  0  0  0  0  0  0  0  0  0  0  0
    2.0094   -2.2977    0.0000 H   0  0  0  0  0  0  0  0  0  0  0  0
    5.7550   -0.3800    0.0000 H   0  0  0  0  0  0  0  0  0  0  0  0
    4.3520   -2.8100    0.0000 H   0  0  0  0  0  0  0  0  0  0  0  0
    5.7550   -2.0000    0.0000 H   0  0  0  0  0  0  0  0  0  0  0  0
    2.6200   -3.8100    0.0000 H   0  0  0  0  0  0  0  0  0  0  0  0
    2.0000   -3.1900    0.0000 H   0  0  0  0  0  0  0  0  0  0  0  0
    3.2400   -3.1900    0.0000 H   0  0  0  0  0  0  0  0  0  0  0  0
  1  6  2  0  0  0  0
  2  6  1  0  0  0  0
  2  8  1  0  0  0  0
  2 22  1  0  0  0  0
  3 12  1  0  0  0  0
  3 32  1  0  0  0  0
  3 33  1  0  0  0  0
  3 34  1  0  0  0  0
  4  5  1  0  0  0  0
  4  6  1  0  0  0  0
  4  7  1  6  0  0  0
  4 16  1  0  0  0  0
  5 10  1  0  0  0  0
  5 17  1  0  0  0  0
  5 18  1  0  0  0  0
  7 19  1  0  0  0  0
  7 20  1  0  0  0  0
  7 21  1  0  0  0  0
  8 11  1  0  0  0  0
  8 13  2  0  0  0  0
  9 11  2  0  0  0  0
  9 12  1  0  0  0  0
  9 14  1  0  0  0  0
 10 23  1  0  0  0  0
 10 24  1  0  0  0  0
 10 25  1  0  0  0  0
 11 26  1  0  0  0  0
 12 27  1  0  0  0  0
 12 28  1  0  0  0  0
 13 15  1  0  0  0  0
 13 29  1  0  0  0  0
 14 15  2  0  0  0  0
 14 30  1  0  0  0  0
 15 31  1  0  0  0  0
M  CHG  1   3   1
M  END
> <PUBCHEM_COMPOUND_CID>
30081337

> <PUBCHEM_COMPOUND_CANONICALIZED>
1

> <PUBCHEM_CACTVS_COMPLEXITY>
206

> <PUBCHEM_CACTVS_HBOND_ACCEPTOR>
1

> <PUBCHEM_CACTVS_HBOND_DONOR>
2

> <PUBCHEM_CACTVS_ROTATABLE_BOND>
4

> <PUBCHEM_CACTVS_SUBSKEYS>
AAADceBzIAAAAAAAAAAAAAAAAAAAAAAAAAAwAAAAAAAAAAABAAAAHgAQAAAADQjBmAQywILAAACIAiVSUACCAAAhAgAIiIEAZIgIIDLAkZGEIAhglADIyAcQgAAOAAAAQAAAAAAAAACAAAAAAAAAAAAAAA==

> <PUBCHEM_IUPAC_OPENEYE_NAME>
[3-[[(2R)-2-methylbutanoyl]amino]phenyl]methylammonium

> <PUBCHEM_IUPAC_CAS_NAME>
[3-[[(2R)-2-methyl-1-oxobutyl]amino]phenyl]methylammonium

> <PUBCHEM_IUPAC_NAME>
[3-[[(2R)-2-methylbutanoyl]amino]phenyl]methylazanium

> <PUBCHEM_IUPAC_SYSTEMATIC_NAME>
[3-[[(2R)-2-methylbutanoyl]amino]phenyl]methylazanium

> <PUBCHEM_IUPAC_TRADITIONAL_NAME>
[3-[[(2R)-2-methylbutanoyl]amino]benzyl]ammonium

> <PUBCHEM_IUPAC_INCHI>
InChI=1S/C12H18N2O/c1-3-9(2)12(15)14-11-6-4-5-10(7-11)8-13/h4-7,9H,3,8,13H2,1-2H3,(H,14,15)/p+1/t9-/m1/s1

> <PUBCHEM_IUPAC_INCHIKEY>
XCJGXWRVOSGDDO-SECBINFHSA-O

> <PUBCHEM_XLOGP3>
1.4

> <PUBCHEM_EXACT_MASS>
207.149738

> <PUBCHEM_MOLECULAR_FORMULA>
C12H19N2O+

> <PUBCHEM_MOLECULAR_WEIGHT>
207.29206

> <PUBCHEM_OPENEYE_CAN_SMILES>
CCC(C)C(=O)NC1=CC=CC(=C1)C[NH3+]

> <PUBCHEM_OPENEYE_ISO_SMILES>
CC[C@@H](C)C(=O)NC1=CC=CC(=C1)C[NH3+]

> <PUBCHEM_CACTVS_TPSA>
56.7

> <PUBCHEM_MONOISOTOPIC_WEIGHT>
207.149738

> <PUBCHEM_TOTAL_CHARGE>
1

> <PUBCHEM_HEAVY_ATOM_COUNT>
15

> <PUBCHEM_ATOM_DEF_STEREO_COUNT>
1

> <PUBCHEM_ATOM_UDEF_STEREO_COUNT>
0

> <PUBCHEM_BOND_DEF_STEREO_COUNT>
0

> <PUBCHEM_BOND_UDEF_STEREO_COUNT>
0

> <PUBCHEM_ISOTOPIC_ATOM_COUNT>
0

> <PUBCHEM_COMPONENT_COUNT>
1

> <PUBCHEM_CACTVS_TAUTO_COUNT>
3

> <PUBCHEM_COORDINATE_TYPE>
1
5
255

> <PUBCHEM_BONDANNOTATIONS>
13  15  8
14  15  8
4  7  6
8  11  8
8  13  8
9  11  8
9  14  8

$$$$
30081340
  -OEChem-03061302102D

 34 34  0     1  0  0  0  0  0999 V2000
    6.0841    0.8100    0.0000 O   0  0  0  0  0  0  0  0  0  0  0  0
    4.3520    0.8100    0.0000 N   0  0  0  0  0  0  0  0  0  0  0  0
    2.6200   -3.1900    0.0000 N   0  3  0  0  0  0  0  0  0  0  0  0
    5.2181    2.3100    0.0000 C   0  0  1  0  0  0  0  0  0  0  0  0
    6.0841    2.8100    0.0000 C   0  0  0  0  0  0  0  0  0  0  0  0
    5.2181    1.3100    0.0000 C   0  0  0  0  0  0  0  0  0  0  0  0
    4.3520    2.8100    0.0000 C   0  0  0  0  0  0  0  0  0  0  0  0
    4.3520   -0.1900    0.0000 C   0  0  0  0  0  0  0  0  0  0  0  0
    3.4860   -1.6900    0.0000 C   0  0  0  0  0  0  0  0  0  0  0  0
    6.0841    3.8100    0.0000 C   0  0  0  0  0  0  0  0  0  0  0  0
    3.4860   -0.6900    0.0000 C   0  0  0  0  0  0  0  0  0  0  0  0
    2.6200   -2.1900    0.0000 C   0  0  0  0  0  0  0  0  0  0  0  0
    5.2181   -0.6900    0.0000 C   0  0  0  0  0  0  0  0  0  0  0  0
    4.3520   -2.1900    0.0000 C   0  0  0  0  0  0  0  0  0  0  0  0
    5.2181   -1.6900    0.0000 C   0  0  0  0  0  0  0  0  0  0  0  0
    5.2181    2.9300    0.0000 H   0  0  0  0  0  0  0  0  0  0  0  0
    6.2962    2.2274    0.0000 H   0  0  0  0  0  0  0  0  0  0  0  0
    6.6947    2.9177    0.0000 H   0  0  0  0  0  0  0  0  0  0  0  0
    4.6620    3.3469    0.0000 H   0  0  0  0  0  0  0  0  0  0  0  0
    3.8151    3.1200    0.0000 H   0  0  0  0  0  0  0  0  0  0  0  0
    4.0420    2.2731    0.0000 H   0  0  0  0  0  0  0  0  0  0  0  0
    3.8151    1.1200    0.0000 H   0  0  0  0  0  0  0  0  0  0  0  0
    6.7041    3.8100    0.0000 H   0  0  0  0  0  0  0  0  0  0  0  0
    6.0841    4.4300    0.0000 H   0  0  0  0  0  0  0  0  0  0  0  0
    5.4641    3.8100    0.0000 H   0  0  0  0  0  0  0  0  0  0  0  0
    2.9491   -0.3800    0.0000 H   0  0  0  0  0  0  0  0  0  0  0  0
    2.4080   -1.6074    0.0000 H   0  0  0  0  0  0  0  0  0  0  0  0
    2.0094   -2.2977    0.0000 H   0  0  0  0  0  0  0  0  0  0  0  0
    5.7550   -0.3800    0.0000 H   0  0  0  0  0  0  0  0  0  0  0  0
    4.3520   -2.8100    0.0000 H   0  0  0  0  0  0  0  0  0  0  0  0
    5.7550   -2.0000    0.0000 H   0  0  0  0  0  0  0  0  0  0  0  0
    2.6200   -3.8100    0.0000 H   0  0  0  0  0  0  0  0  0  0  0  0
    2.0000   -3.1900    0.0000 H   0  0  0  0  0  0  0  0  0  0  0  0
    3.2400   -3.1900    0.0000 H   0  0  0  0  0  0  0  0  0  0  0  0
  1  6  2  0  0  0  0
  2  6  1  0  0  0  0
  2  8  1  0  0  0  0
  2 22  1  0  0  0  0
  3 12  1  0  0  0  0
  3 32  1  0  0  0  0
  3 33  1  0  0  0  0
  3 34  1  0  0  0  0
  4  5  1  0  0  0  0
  4  6  1  0  0  0  0
  4  7  1  1  0  0  0
  4 16  1  0  0  0  0
  5 10  1  0  0  0  0
  5 17  1  0  0  0  0
  5 18  1  0  0  0  0
  7 19  1  0  0  0  0
  7 20  1  0  0  0  0
  7 21  1  0  0  0  0
  8 11  1  0  0  0  0
  8 13  2  0  0  0  0
  9 11  2  0  0  0  0
  9 12  1  0  0  0  0
  9 14  1  0  0  0  0
 10 23  1  0  0  0  0
 10 24  1  0  0  0  0
 10 25  1  0  0  0  0
 11 26  1  0  0  0  0
 12 27  1  0  0  0  0
 12 28  1  0  0  0  0
 13 15  1  0  0  0  0
 13 29  1  0  0  0  0
 14 15  2  0  0  0  0
 14 30  1  0  0  0  0
 15 31  1  0  0  0  0
M  CHG  1   3   1
M  END
> <PUBCHEM_COMPOUND_CID>
30081340

> <PUBCHEM_COMPOUND_CANONICALIZED>
1

> <PUBCHEM_CACTVS_COMPLEXITY>
206

> <PUBCHEM_CACTVS_HBOND_ACCEPTOR>
1

> <PUBCHEM_CACTVS_HBOND_DONOR>
2

> <PUBCHEM_CACTVS_ROTATABLE_BOND>
4

> <PUBCHEM_CACTVS_SUBSKEYS>
AAADceBzIAAAAAAAAAAAAAAAAAAAAAAAAAAwAAAAAAAAAAABAAAAHgAQAAAADQjBmAQywILAAACIAiVSUACCAAAhAgAIiIEAZIgIIDLAkZGEIAhglADIyAcQgAAOAAAAQAAAAAAAAACAAAAAAAAAAAAAAA==

> <PUBCHEM_IUPAC_OPENEYE_NAME>
[3-[[(2S)-2-methylbutanoyl]amino]phenyl]methylammonium

> <PUBCHEM_IUPAC_CAS_NAME>
[3-[[(2S)-2-methyl-1-oxobutyl]amino]phenyl]methylammonium

> <PUBCHEM_IUPAC_NAME>
[3-[[(2S)-2-methylbutanoyl]amino]phenyl]methylazanium

> <PUBCHEM_IUPAC_SYSTEMATIC_NAME>
[3-[[(2S)-2-methylbutanoyl]amino]phenyl]methylazanium

> <PUBCHEM_IUPAC_TRADITIONAL_NAME>
[3-[[(2S)-2-methylbutanoyl]amino]benzyl]ammonium

> <PUBCHEM_IUPAC_INCHI>
InChI=1S/C12H18N2O/c1-3-9(2)12(15)14-11-6-4-5-10(7-11)8-13/h4-7,9H,3,8,13H2,1-2H3,(H,14,15)/p+1/t9-/m0/s1

> <PUBCHEM_IUPAC_INCHIKEY>
XCJGXWRVOSGDDO-VIFPVBQESA-O

> <PUBCHEM_XLOGP3>
1.4

> <PUBCHEM_EXACT_MASS>
207.149738

> <PUBCHEM_MOLECULAR_FORMULA>
C12H19N2O+

> <PUBCHEM_MOLECULAR_WEIGHT>
207.29206

> <PUBCHEM_OPENEYE_CAN_SMILES>
CCC(C)C(=O)NC1=CC=CC(=C1)C[NH3+]

> <PUBCHEM_OPENEYE_ISO_SMILES>
CC[C@H](C)C(=O)NC1=CC=CC(=C1)C[NH3+]

> <PUBCHEM_CACTVS_TPSA>
56.7

> <PUBCHEM_MONOISOTOPIC_WEIGHT>
207.149738

> <PUBCHEM_TOTAL_CHARGE>
1

> <PUBCHEM_HEAVY_ATOM_COUNT>
15

> <PUBCHEM_ATOM_DEF_STEREO_COUNT>
1

> <PUBCHEM_ATOM_UDEF_STEREO_COUNT>
0

> <PUBCHEM_BOND_DEF_STEREO_COUNT>
0

> <PUBCHEM_BOND_UDEF_STEREO_COUNT>
0

> <PUBCHEM_ISOTOPIC_ATOM_COUNT>
0

> <PUBCHEM_COMPONENT_COUNT>
1

> <PUBCHEM_CACTVS_TAUTO_COUNT>
3

> <PUBCHEM_COORDINATE_TYPE>
1
5
255

> <PUBCHEM_BONDANNOTATIONS>
13  15  8
14  15  8
4  7  5
8  11  8
8  13  8
9  11  8
9  14  8

$$$$
30082527
  -OEChem-03061302102D

 38 39  0     0  0  0  0  0  0999 V2000
    7.5369    2.4795    0.0000 O   0  0  0  0  0  0  0  0  0  0  0  0
    7.5369   -0.5205    0.0000 N   0  3  0  0  0  0  0  0  0  0  0  0
    2.5369   -2.2526    0.0000 N   0  3  0  0  0  0  0  0  0  0  0  0
    6.6709   -0.0205    0.0000 C   0  0  0  0  0  0  0  0  0  0  0  0
    8.4030   -0.0205    0.0000 C   0  0  0  0  0  0  0  0  0  0  0  0
    6.6709    0.9795    0.0000 C   0  0  0  0  0  0  0  0  0  0  0  0
    8.4030    0.9795    0.0000 C   0  0  0  0  0  0  0  0  0  0  0  0
    7.5369    1.4795    0.0000 C   0  0  0  0  0  0  0  0  0  0  0  0
    7.0369   -1.3865    0.0000 C   0  0  0  0  0  0  0  0  0  0  0  0
    6.0369   -1.3865    0.0000 C   0  0  0  0  0  0  0  0  0  0  0  0
    5.5369   -2.2526    0.0000 C   0  0  0  0  0  0  0  0  0  0  0  0
    5.5369   -0.5205    0.0000 C   0  0  0  0  0  0  0  0  0  0  0  0
    4.0369   -1.3865    0.0000 C   0  0  0  0  0  0  0  0  0  0  0  0
    4.5369   -2.2526    0.0000 C   0  0  0  0  0  0  0  0  0  0  0  0
    4.5369   -0.5205    0.0000 C   0  0  0  0  0  0  0  0  0  0  0  0
    3.0369   -1.3865    0.0000 C   0  0  0  0  0  0  0  0  0  0  0  0
    7.8469   -1.0574    0.0000 H   0  0  0  0  0  0  0  0  0  0  0  0
    8.6150   -0.6031    0.0000 H   0  0  0  0  0  0  0  0  0  0  0  0
    9.0135    0.0872    0.0000 H   0  0  0  0  0  0  0  0  0  0  0  0
    6.0603    0.0872    0.0000 H   0  0  0  0  0  0  0  0  0  0  0  0
    6.4589   -0.6031    0.0000 H   0  0  0  0  0  0  0  0  0  0  0  0
    9.0135    0.8718    0.0000 H   0  0  0  0  0  0  0  0  0  0  0  0
    8.6150    1.5621    0.0000 H   0  0  0  0  0  0  0  0  0  0  0  0
    6.4589    1.5621    0.0000 H   0  0  0  0  0  0  0  0  0  0  0  0
    6.0603    0.8718    0.0000 H   0  0  0  0  0  0  0  0  0  0  0  0
    8.0739    1.7895    0.0000 H   0  0  0  0  0  0  0  0  0  0  0  0
    6.9293   -1.9971    0.0000 H   0  0  0  0  0  0  0  0  0  0  0  0
    7.6196   -1.5986    0.0000 H   0  0  0  0  0  0  0  0  0  0  0  0
    8.0739    2.7895    0.0000 H   0  0  0  0  0  0  0  0  0  0  0  0
    5.8469   -2.7895    0.0000 H   0  0  0  0  0  0  0  0  0  0  0  0
    5.8469    0.0164    0.0000 H   0  0  0  0  0  0  0  0  0  0  0  0
    4.2269   -2.7895    0.0000 H   0  0  0  0  0  0  0  0  0  0  0  0
    4.2269    0.0164    0.0000 H   0  0  0  0  0  0  0  0  0  0  0  0
    3.1446   -0.7760    0.0000 H   0  0  0  0  0  0  0  0  0  0  0  0
    2.4543   -1.1745    0.0000 H   0  0  0  0  0  0  0  0  0  0  0  0
    2.2269   -2.7895    0.0000 H   0  0  0  0  0  0  0  0  0  0  0  0
    2.0000   -1.9426    0.0000 H   0  0  0  0  0  0  0  0  0  0  0  0
    3.0739   -2.5626    0.0000 H   0  0  0  0  0  0  0  0  0  0  0  0
  1  8  1  0  0  0  0
  1 29  1  0  0  0  0
  2  4  1  0  0  0  0
  2  5  1  0  0  0  0
  2  9  1  0  0  0  0
  2 17  1  0  0  0  0
  3 16  1  0  0  0  0
  3 36  1  0  0  0  0
  3 37  1  0  0  0  0
  3 38  1  0  0  0  0
  4  6  1  0  0  0  0
  4 20  1  0  0  0  0
  4 21  1  0  0  0  0
  5  7  1  0  0  0  0
  5 18  1  0  0  0  0
  5 19  1  0  0  0  0
  6  8  1  0  0  0  0
  6 24  1  0  0  0  0
  6 25  1  0  0  0  0
  7  8  1  0  0  0  0
  7 22  1  0  0  0  0
  7 23  1  0  0  0  0
  8 26  1  0  0  0  0
  9 10  1  0  0  0  0
  9 27  1  0  0  0  0
  9 28  1  0  0  0  0
 10 11  2  0  0  0  0
 10 12  1  0  0  0  0
 11 14  1  0  0  0  0
 11 30  1  0  0  0  0
 12 15  2  0  0  0  0
 12 31  1  0  0  0  0
 13 14  2  0  0  0  0
 13 15  1  0  0  0  0
 13 16  1  0  0  0  0
 14 32  1  0  0  0  0
 15 33  1  0  0  0  0
 16 34  1  0  0  0  0
 16 35  1  0  0  0  0
M  CHG  2   2   1   3   1
M  END
> <PUBCHEM_COMPOUND_CID>
30082527

> <PUBCHEM_COMPOUND_CANONICALIZED>
1

> <PUBCHEM_CACTVS_COMPLEXITY>
194

> <PUBCHEM_CACTVS_HBOND_ACCEPTOR>
1

> <PUBCHEM_CACTVS_HBOND_DONOR>
3

> <PUBCHEM_CACTVS_ROTATABLE_BOND>
3

> <PUBCHEM_CACTVS_SUBSKEYS>
AAADceBzIAAAAAAAAAAAAAAAAAAAAAAAAAA8QAAAAAAAAAABAAAAHgAQCAAADBThmAYwAIPAAgCAAiBCAACCAAAgAAAIiIAIBIgIMCKAkRGEYAhikACIiAcQgAAOQAAAAAAAAACAAAAAAAAAAAAAAAAAAA==

> <PUBCHEM_IUPAC_OPENEYE_NAME>
[4-[(4-hydroxypiperidin-1-ium-1-yl)methyl]phenyl]methylammonium

> <PUBCHEM_IUPAC_CAS_NAME>
[4-[(4-hydroxy-1-piperidin-1-iumyl)methyl]phenyl]methylammonium

> <PUBCHEM_IUPAC_NAME>
[4-[(4-hydroxypiperidin-1-ium-1-yl)methyl]phenyl]methylazanium

> <PUBCHEM_IUPAC_SYSTEMATIC_NAME>
[4-[(4-oxidanylpiperidin-1-ium-1-yl)methyl]phenyl]methylazanium

> <PUBCHEM_IUPAC_TRADITIONAL_NAME>
[4-[(4-hydroxypiperidin-1-ium-1-yl)methyl]benzyl]ammonium

> <PUBCHEM_IUPAC_INCHI>
InChI=1S/C13H20N2O/c14-9-11-1-3-12(4-2-11)10-15-7-5-13(16)6-8-15/h1-4,13,16H,5-10,14H2/p+2

> <PUBCHEM_IUPAC_INCHIKEY>
JTGIUXXVEATROB-UHFFFAOYSA-P

> <PUBCHEM_XLOGP3>
0.2

> <PUBCHEM_EXACT_MASS>
222.173213

> <PUBCHEM_MOLECULAR_FORMULA>
C13H22N2O+2

> <PUBCHEM_MOLECULAR_WEIGHT>
222.32658

> <PUBCHEM_OPENEYE_CAN_SMILES>
C1C[NH+](CCC1O)CC2=CC=C(C=C2)C[NH3+]

> <PUBCHEM_OPENEYE_ISO_SMILES>
C1C[NH+](CCC1O)CC2=CC=C(C=C2)C[NH3+]

> <PUBCHEM_CACTVS_TPSA>
52.3

> <PUBCHEM_MONOISOTOPIC_WEIGHT>
222.173213

> <PUBCHEM_TOTAL_CHARGE>
2

> <PUBCHEM_HEAVY_ATOM_COUNT>
16

> <PUBCHEM_ATOM_DEF_STEREO_COUNT>
0

> <PUBCHEM_ATOM_UDEF_STEREO_COUNT>
0

> <PUBCHEM_BOND_DEF_STEREO_COUNT>
0

> <PUBCHEM_BOND_UDEF_STEREO_COUNT>
0

> <PUBCHEM_ISOTOPIC_ATOM_COUNT>
0

> <PUBCHEM_COMPONENT_COUNT>
1

> <PUBCHEM_CACTVS_TAUTO_COUNT>
1

> <PUBCHEM_COORDINATE_TYPE>
1
5
255

> <PUBCHEM_BONDANNOTATIONS>
10  11  8
10  12  8
11  14  8
12  15  8
13  14  8
13  15  8

$$$$
30099505
  -OEChem-03061302102D

 38 39  0     0  0  0  0  0  0999 V2000
    2.0000   -1.8660    0.0000 Cl  0  0  0  0  0  0  0  0  0  0  0  0
    5.4641   -3.8660    0.0000 Cl  0  0  0  0  0  0  0  0  0  0  0  0
    5.4641   -0.8660    0.0000 O   0  0  0  0  0  0  0  0  0  0  0  0
    5.4641    2.1340    0.0000 N   0  3  0  0  0  0  0  0  0  0  0  0
    3.7320   -0.8660    0.0000 N   0  0  0  0  0  0  0  0  0  0  0  0
    5.9641    3.0000    0.0000 C   0  0  0  0  0  0  0  0  0  0  0  0
    4.4641    2.1340    0.0000 C   0  0  0  0  0  0  0  0  0  0  0  0
    5.4641    3.8660    0.0000 C   0  0  0  0  0  0  0  0  0  0  0  0
    3.9641    3.0000    0.0000 C   0  0  0  0  0  0  0  0  0  0  0  0
    4.4641    3.8660    0.0000 C   0  0  0  0  0  0  0  0  0  0  0  0
    5.4641    1.1340    0.0000 C   0  0  0  0  0  0  0  0  0  0  0  0
    4.5981    0.6340    0.0000 C   0  0  0  0  0  0  0  0  0  0  0  0
    4.5981   -0.3660    0.0000 C   0  0  0  0  0  0  0  0  0  0  0  0
    3.7320   -1.8660    0.0000 C   0  0  0  0  0  0  0  0  0  0  0  0
    2.8660   -2.3660    0.0000 C   0  0  0  0  0  0  0  0  0  0  0  0
    4.5981   -2.3660    0.0000 C   0  0  0  0  0  0  0  0  0  0  0  0
    4.5981   -3.3660    0.0000 C   0  0  0  0  0  0  0  0  0  0  0  0
    2.8660   -3.3660    0.0000 C   0  0  0  0  0  0  0  0  0  0  0  0
    3.7320   -3.8660    0.0000 C   0  0  0  0  0  0  0  0  0  0  0  0
    6.3301    1.6340    0.0000 H   0  0  0  0  0  0  0  0  0  0  0  0
    6.4390    2.6015    0.0000 H   0  0  0  0  0  0  0  0  0  0  0  0
    6.4390    3.3985    0.0000 H   0  0  0  0  0  0  0  0  0  0  0  0
    3.8815    1.9219    0.0000 H   0  0  0  0  0  0  0  0  0  0  0  0
    4.5718    1.5234    0.0000 H   0  0  0  0  0  0  0  0  0  0  0  0
    6.0467    4.0781    0.0000 H   0  0  0  0  0  0  0  0  0  0  0  0
    5.3564    4.4766    0.0000 H   0  0  0  0  0  0  0  0  0  0  0  0
    3.4892    3.3985    0.0000 H   0  0  0  0  0  0  0  0  0  0  0  0
    3.4892    2.6015    0.0000 H   0  0  0  0  0  0  0  0  0  0  0  0
    4.5718    4.4766    0.0000 H   0  0  0  0  0  0  0  0  0  0  0  0
    3.8815    4.0781    0.0000 H   0  0  0  0  0  0  0  0  0  0  0  0
    5.6762    0.5514    0.0000 H   0  0  0  0  0  0  0  0  0  0  0  0
    6.0747    1.2416    0.0000 H   0  0  0  0  0  0  0  0  0  0  0  0
    4.3860    1.2166    0.0000 H   0  0  0  0  0  0  0  0  0  0  0  0
    3.9875    0.5263    0.0000 H   0  0  0  0  0  0  0  0  0  0  0  0
    3.1951   -0.5560    0.0000 H   0  0  0  0  0  0  0  0  0  0  0  0
    5.1350   -2.0560    0.0000 H   0  0  0  0  0  0  0  0  0  0  0  0
    2.3291   -3.6760    0.0000 H   0  0  0  0  0  0  0  0  0  0  0  0
    3.7320   -4.4860    0.0000 H   0  0  0  0  0  0  0  0  0  0  0  0
  1 15  1  0  0  0  0
  2 17  1  0  0  0  0
  3 13  2  0  0  0  0
  4  6  1  0  0  0  0
  4  7  1  0  0  0  0
  4 11  1  0  0  0  0
  4 20  1  0  0  0  0
  5 13  1  0  0  0  0
  5 14  1  0  0  0  0
  5 35  1  0  0  0  0
  6  8  1  0  0  0  0
  6 21  1  0  0  0  0
  6 22  1  0  0  0  0
  7  9  1  0  0  0  0
  7 23  1  0  0  0  0
  7 24  1  0  0  0  0
  8 10  1  0  0  0  0
  8 25  1  0  0  0  0
  8 26  1  0  0  0  0
  9 10  1  0  0  0  0
  9 27  1  0  0  0  0
  9 28  1  0  0  0  0
 10 29  1  0  0  0  0
 10 30  1  0  0  0  0
 11 12  1  0  0  0  0
 11 31  1  0  0  0  0
 11 32  1  0  0  0  0
 12 13  1  0  0  0  0
 12 33  1  0  0  0  0
 12 34  1  0  0  0  0
 14 15  2  0  0  0  0
 14 16  1  0  0  0  0
 15 18  1  0  0  0  0
 16 17  2  0  0  0  0
 16 36  1  0  0  0  0
 17 19  1  0  0  0  0
 18 19  2  0  0  0  0
 18 37  1  0  0  0  0
 19 38  1  0  0  0  0
M  CHG  1   4   1
M  END
> <PUBCHEM_COMPOUND_CID>
30099505

> <PUBCHEM_COMPOUND_CANONICALIZED>
1

> <PUBCHEM_CACTVS_COMPLEXITY>
295

> <PUBCHEM_CACTVS_HBOND_ACCEPTOR>
1

> <PUBCHEM_CACTVS_HBOND_DONOR>
2

> <PUBCHEM_CACTVS_ROTATABLE_BOND>
4

> <PUBCHEM_CACTVS_SUBSKEYS>
AAADceBzIAAGAAAAAAAAAAAAAAAAAAAAAAA8QAAAAAAAAAABAAAAHgIQAAAACArBkCQwwIPAAACIACVSUACCAAAhBwAIiIEIZogIICrB05HEIAhglADIyAcQAAAAAAAQAAIAABAAACAABAAAIAAAAAAAAA==

> <PUBCHEM_IUPAC_OPENEYE_NAME>
N-(2,5-dichlorophenyl)-3-piperidin-1-ium-1-yl-propanamide

> <PUBCHEM_IUPAC_CAS_NAME>
N-(2,5-dichlorophenyl)-3-(1-piperidin-1-iumyl)propanamide

> <PUBCHEM_IUPAC_NAME>
N-(2,5-dichlorophenyl)-3-piperidin-1-ium-1-ylpropanamide

> <PUBCHEM_IUPAC_SYSTEMATIC_NAME>
N-[2,5-bis(chloranyl)phenyl]-3-piperidin-1-ium-1-yl-propanamide

> <PUBCHEM_IUPAC_TRADITIONAL_NAME>
N-(2,5-dichlorophenyl)-3-piperidin-1-ium-1-yl-propionamide

> <PUBCHEM_IUPAC_INCHI>
InChI=1S/C14H18Cl2N2O/c15-11-4-5-12(16)13(10-11)17-14(19)6-9-18-7-2-1-3-8-18/h4-5,10H,1-3,6-9H2,(H,17,19)/p+1

> <PUBCHEM_IUPAC_INCHIKEY>
QBKWTNASMODWLC-UHFFFAOYSA-O

> <PUBCHEM_XLOGP3>
3

> <PUBCHEM_EXACT_MASS>
301.087444

> <PUBCHEM_MOLECULAR_FORMULA>
C14H19Cl2N2O+

> <PUBCHEM_MOLECULAR_WEIGHT>
302.21946

> <PUBCHEM_OPENEYE_CAN_SMILES>
C1CC[NH+](CC1)CCC(=O)NC2=C(C=CC(=C2)Cl)Cl

> <PUBCHEM_OPENEYE_ISO_SMILES>
C1CC[NH+](CC1)CCC(=O)NC2=C(C=CC(=C2)Cl)Cl

> <PUBCHEM_CACTVS_TPSA>
33.5

> <PUBCHEM_MONOISOTOPIC_WEIGHT>
301.087444

> <PUBCHEM_TOTAL_CHARGE>
1

> <PUBCHEM_HEAVY_ATOM_COUNT>
19

> <PUBCHEM_ATOM_DEF_STEREO_COUNT>
0

> <PUBCHEM_ATOM_UDEF_STEREO_COUNT>
0

> <PUBCHEM_BOND_DEF_STEREO_COUNT>
0

> <PUBCHEM_BOND_UDEF_STEREO_COUNT>
0

> <PUBCHEM_ISOTOPIC_ATOM_COUNT>
0

> <PUBCHEM_COMPONENT_COUNT>
1

> <PUBCHEM_CACTVS_TAUTO_COUNT>
3

> <PUBCHEM_COORDINATE_TYPE>
1
5
255

> <PUBCHEM_BONDANNOTATIONS>
14  15  8
14  16  8
15  18  8
16  17  8
17  19  8
18  19  8

$$$$
30099515
  -OEChem-03061302102D

 48 50  0     0  0  0  0  0  0999 V2000
    6.0981   -2.0000    0.0000 O   0  0  0  0  0  0  0  0  0  0  0  0
    3.5000   -0.5000    0.0000 N   0  3  0  0  0  0  0  0  0  0  0  0
    6.9641   -0.5000    0.0000 N   0  0  0  0  0  0  0  0  0  0  0  0
    4.0000    0.3660    0.0000 C   0  0  0  0  0  0  0  0  0  0  0  0
    2.5000   -0.5000    0.0000 C   0  0  0  0  0  0  0  0  0  0  0  0
    3.5000    1.2320    0.0000 C   0  0  0  0  0  0  0  0  0  0  0  0
    2.0000    0.3660    0.0000 C   0  0  0  0  0  0  0  0  0  0  0  0
    2.5000    1.2320    0.0000 C   0  0  0  0  0  0  0  0  0  0  0  0
    4.3660   -1.0000    0.0000 C   0  0  0  0  0  0  0  0  0  0  0  0
    5.2320   -0.5000    0.0000 C   0  0  0  0  0  0  0  0  0  0  0  0
    6.0981   -1.0000    0.0000 C   0  0  0  0  0  0  0  0  0  0  0  0
    7.8301   -1.0000    0.0000 C   0  0  0  0  0  0  0  0  0  0  0  0
    8.6962   -0.5000    0.0000 C   0  0  0  0  0  0  0  0  0  0  0  0
    7.8301   -2.0000    0.0000 C   0  0  0  0  0  0  0  0  0  0  0  0
    8.6962    0.5000    0.0000 C   0  0  0  0  0  0  0  0  0  0  0  0
    9.5622   -1.0000    0.0000 C   0  0  0  0  0  0  0  0  0  0  0  0
    8.6962   -2.5000    0.0000 C   0  0  0  0  0  0  0  0  0  0  0  0
    9.5622   -2.0000    0.0000 C   0  0  0  0  0  0  0  0  0  0  0  0
    7.8301    1.0000    0.0000 C   0  0  0  0  0  0  0  0  0  0  0  0
    9.5622    1.0000    0.0000 C   0  0  0  0  0  0  0  0  0  0  0  0
    7.8301    2.0000    0.0000 C   0  0  0  0  0  0  0  0  0  0  0  0
    9.5622    2.0000    0.0000 C   0  0  0  0  0  0  0  0  0  0  0  0
    8.6962    2.5000    0.0000 C   0  0  0  0  0  0  0  0  0  0  0  0
    3.5000   -1.5000    0.0000 H   0  0  0  0  0  0  0  0  0  0  0  0
    4.4750   -0.0325    0.0000 H   0  0  0  0  0  0  0  0  0  0  0  0
    4.4750    0.7646    0.0000 H   0  0  0  0  0  0  0  0  0  0  0  0
    1.9174   -0.7121    0.0000 H   0  0  0  0  0  0  0  0  0  0  0  0
    2.6077   -1.1106    0.0000 H   0  0  0  0  0  0  0  0  0  0  0  0
    4.0826    1.4441    0.0000 H   0  0  0  0  0  0  0  0  0  0  0  0
    3.3923    1.8426    0.0000 H   0  0  0  0  0  0  0  0  0  0  0  0
    1.5250    0.7646    0.0000 H   0  0  0  0  0  0  0  0  0  0  0  0
    1.5250   -0.0325    0.0000 H   0  0  0  0  0  0  0  0  0  0  0  0
    2.6077    1.8426    0.0000 H   0  0  0  0  0  0  0  0  0  0  0  0
    1.9174    1.4441    0.0000 H   0  0  0  0  0  0  0  0  0  0  0  0
    3.9675   -1.4750    0.0000 H   0  0  0  0  0  0  0  0  0  0  0  0
    4.7646   -1.4750    0.0000 H   0  0  0  0  0  0  0  0  0  0  0  0
    5.6306   -0.0251    0.0000 H   0  0  0  0  0  0  0  0  0  0  0  0
    4.8335   -0.0251    0.0000 H   0  0  0  0  0  0  0  0  0  0  0  0
    6.9641    0.1200    0.0000 H   0  0  0  0  0  0  0  0  0  0  0  0
    7.2932   -2.3100    0.0000 H   0  0  0  0  0  0  0  0  0  0  0  0
   10.0991   -0.6900    0.0000 H   0  0  0  0  0  0  0  0  0  0  0  0
    8.6962   -3.1200    0.0000 H   0  0  0  0  0  0  0  0  0  0  0  0
   10.0991   -2.3100    0.0000 H   0  0  0  0  0  0  0  0  0  0  0  0
    7.2932    0.6900    0.0000 H   0  0  0  0  0  0  0  0  0  0  0  0
   10.0991    0.6900    0.0000 H   0  0  0  0  0  0  0  0  0  0  0  0
    7.2932    2.3100    0.0000 H   0  0  0  0  0  0  0  0  0  0  0  0
   10.0991    2.3100    0.0000 H   0  0  0  0  0  0  0  0  0  0  0  0
    8.6962    3.1200    0.0000 H   0  0  0  0  0  0  0  0  0  0  0  0
  1 11  2  0  0  0  0
  2  4  1  0  0  0  0
  2  5  1  0  0  0  0
  2  9  1  0  0  0  0
  2 24  1  0  0  0  0
  3 11  1  0  0  0  0
  3 12  1  0  0  0  0
  3 39  1  0  0  0  0
  4  6  1  0  0  0  0
  4 25  1  0  0  0  0
  4 26  1  0  0  0  0
  5  7  1  0  0  0  0
  5 27  1  0  0  0  0
  5 28  1  0  0  0  0
  6  8  1  0  0  0  0
  6 29  1  0  0  0  0
  6 30  1  0  0  0  0
  7  8  1  0  0  0  0
  7 31  1  0  0  0  0
  7 32  1  0  0  0  0
  8 33  1  0  0  0  0
  8 34  1  0  0  0  0
  9 10  1  0  0  0  0
  9 35  1  0  0  0  0
  9 36  1  0  0  0  0
 10 11  1  0  0  0  0
 10 37  1  0  0  0  0
 10 38  1  0  0  0  0
 12 13  1  0  0  0  0
 12 14  2  0  0  0  0
 13 15  1  0  0  0  0
 13 16  2  0  0  0  0
 14 17  1  0  0  0  0
 14 40  1  0  0  0  0
 15 19  2  0  0  0  0
 15 20  1  0  0  0  0
 16 18  1  0  0  0  0
 16 41  1  0  0  0  0
 17 18  2  0  0  0  0
 17 42  1  0  0  0  0
 18 43  1  0  0  0  0
 19 21  1  0  0  0  0
 19 44  1  0  0  0  0
 20 22  2  0  0  0  0
 20 45  1  0  0  0  0
 21 23  2  0  0  0  0
 21 46  1  0  0  0  0
 22 23  1  0  0  0  0
 22 47  1  0  0  0  0
 23 48  1  0  0  0  0
M  CHG  1   2   1
M  END
> <PUBCHEM_COMPOUND_CID>
30099515

> <PUBCHEM_COMPOUND_CANONICALIZED>
1

> <PUBCHEM_CACTVS_COMPLEXITY>
359

> <PUBCHEM_CACTVS_HBOND_ACCEPTOR>
1

> <PUBCHEM_CACTVS_HBOND_DONOR>
2

> <PUBCHEM_CACTVS_ROTATABLE_BOND>
5

> <PUBCHEM_CACTVS_SUBSKEYS>
AAADceB7IAAAAAAAAAAAAAAAAAAAAAAAAAA8YIAAAAAAAAABQAAAHgAQAAAADAjBmAQwwIPAAACIAiVSUACCAAAhAgAIiIEIZIgIICrA0ZGEIAhglADIyAcQgMAOgAAAAAACAAAAAAAAAAQAAAAAAAAAAA==

> <PUBCHEM_IUPAC_OPENEYE_NAME>
N-(2-phenylphenyl)-3-piperidin-1-ium-1-yl-propanamide

> <PUBCHEM_IUPAC_CAS_NAME>
N-(2-phenylphenyl)-3-(1-piperidin-1-iumyl)propanamide

> <PUBCHEM_IUPAC_NAME>
N-(2-phenylphenyl)-3-piperidin-1-ium-1-ylpropanamide

> <PUBCHEM_IUPAC_SYSTEMATIC_NAME>
N-(2-phenylphenyl)-3-piperidin-1-ium-1-yl-propanamide

> <PUBCHEM_IUPAC_TRADITIONAL_NAME>
N-(2-phenylphenyl)-3-piperidin-1-ium-1-yl-propionamide

> <PUBCHEM_IUPAC_INCHI>
InChI=1S/C20H24N2O/c23-20(13-16-22-14-7-2-8-15-22)21-19-12-6-5-11-18(19)17-9-3-1-4-10-17/h1,3-6,9-12H,2,7-8,13-16H2,(H,21,23)/p+1

> <PUBCHEM_IUPAC_INCHIKEY>
FNWSTDUWRTXMFE-UHFFFAOYSA-O

> <PUBCHEM_XLOGP3>
2.8

> <PUBCHEM_EXACT_MASS>
309.196688

> <PUBCHEM_MOLECULAR_FORMULA>
C20H25N2O+

> <PUBCHEM_MOLECULAR_WEIGHT>
309.4253

> <PUBCHEM_OPENEYE_CAN_SMILES>
C1CC[NH+](CC1)CCC(=O)NC2=CC=CC=C2C3=CC=CC=C3

> <PUBCHEM_OPENEYE_ISO_SMILES>
C1CC[NH+](CC1)CCC(=O)NC2=CC=CC=C2C3=CC=CC=C3

> <PUBCHEM_CACTVS_TPSA>
33.5

> <PUBCHEM_MONOISOTOPIC_WEIGHT>
309.196688

> <PUBCHEM_TOTAL_CHARGE>
1

> <PUBCHEM_HEAVY_ATOM_COUNT>
23

> <PUBCHEM_ATOM_DEF_STEREO_COUNT>
0

> <PUBCHEM_ATOM_UDEF_STEREO_COUNT>
0

> <PUBCHEM_BOND_DEF_STEREO_COUNT>
0

> <PUBCHEM_BOND_UDEF_STEREO_COUNT>
0

> <PUBCHEM_ISOTOPIC_ATOM_COUNT>
0

> <PUBCHEM_COMPONENT_COUNT>
1

> <PUBCHEM_CACTVS_TAUTO_COUNT>
3

> <PUBCHEM_COORDINATE_TYPE>
1
5
255

> <PUBCHEM_BONDANNOTATIONS>
12  13  8
12  14  8
13  16  8
14  17  8
15  19  8
15  20  8
16  18  8
17  18  8
19  21  8
20  22  8
21  23  8
22  23  8

$$$$
30099686
  -OEChem-03061302102D

 44 45  0     1  0  0  0  0  0999 V2000
    2.0000   -2.5000    0.0000 Cl  0  0  0  0  0  0  0  0  0  0  0  0
    5.4641   -4.5000    0.0000 Cl  0  0  0  0  0  0  0  0  0  0  0  0
    5.4641   -1.5000    0.0000 O   0  0  0  0  0  0  0  0  0  0  0  0
    5.4641    1.5000    0.0000 N   0  3  3  0  0  0  0  0  0  0  0  0
    3.7320   -1.5000    0.0000 N   0  0  0  0  0  0  0  0  0  0  0  0
    5.4641    2.5000    0.0000 C   0  0  0  0  0  0  0  0  0  0  0  0
    6.3301    3.0000    0.0000 C   0  0  0  0  0  0  0  0  0  0  0  0
    4.5981    3.0000    0.0000 C   0  0  0  0  0  0  0  0  0  0  0  0
    6.3301    4.0000    0.0000 C   0  0  0  0  0  0  0  0  0  0  0  0
    4.5981    4.0000    0.0000 C   0  0  0  0  0  0  0  0  0  0  0  0
    5.4641    4.5000    0.0000 C   0  0  0  0  0  0  0  0  0  0  0  0
    5.4641    0.5000    0.0000 C   0  0  0  0  0  0  0  0  0  0  0  0
    6.4641    1.5000    0.0000 C   0  0  0  0  0  0  0  0  0  0  0  0
    4.5981    0.0000    0.0000 C   0  0  0  0  0  0  0  0  0  0  0  0
    4.5981   -1.0000    0.0000 C   0  0  0  0  0  0  0  0  0  0  0  0
    3.7320   -2.5000    0.0000 C   0  0  0  0  0  0  0  0  0  0  0  0
    2.8660   -3.0000    0.0000 C   0  0  0  0  0  0  0  0  0  0  0  0
    4.5981   -3.0000    0.0000 C   0  0  0  0  0  0  0  0  0  0  0  0
    4.5981   -4.0000    0.0000 C   0  0  0  0  0  0  0  0  0  0  0  0
    2.8660   -4.0000    0.0000 C   0  0  0  0  0  0  0  0  0  0  0  0
    3.7320   -4.5000    0.0000 C   0  0  0  0  0  0  0  0  0  0  0  0
    6.0010    2.1900    0.0000 H   0  0  0  0  0  0  0  0  0  0  0  0
    4.8441    1.5000    0.0000 H   0  0  0  0  0  0  0  0  0  0  0  0
    6.5422    2.4174    0.0000 H   0  0  0  0  0  0  0  0  0  0  0  0
    6.9407    3.1077    0.0000 H   0  0  0  0  0  0  0  0  0  0  0  0
    3.9875    3.1077    0.0000 H   0  0  0  0  0  0  0  0  0  0  0  0
    4.3860    2.4174    0.0000 H   0  0  0  0  0  0  0  0  0  0  0  0
    6.9407    3.8923    0.0000 H   0  0  0  0  0  0  0  0  0  0  0  0
    6.5422    4.5826    0.0000 H   0  0  0  0  0  0  0  0  0  0  0  0
    4.3860    4.5826    0.0000 H   0  0  0  0  0  0  0  0  0  0  0  0
    3.9875    3.8923    0.0000 H   0  0  0  0  0  0  0  0  0  0  0  0
    5.8626    4.9750    0.0000 H   0  0  0  0  0  0  0  0  0  0  0  0
    5.0656    4.9750    0.0000 H   0  0  0  0  0  0  0  0  0  0  0  0
    5.6762   -0.0826    0.0000 H   0  0  0  0  0  0  0  0  0  0  0  0
    6.0747    0.6077    0.0000 H   0  0  0  0  0  0  0  0  0  0  0  0
    6.4641    0.8800    0.0000 H   0  0  0  0  0  0  0  0  0  0  0  0
    7.0841    1.5000    0.0000 H   0  0  0  0  0  0  0  0  0  0  0  0
    6.4641    2.1200    0.0000 H   0  0  0  0  0  0  0  0  0  0  0  0
    4.3860    0.5826    0.0000 H   0  0  0  0  0  0  0  0  0  0  0  0
    3.9875   -0.1077    0.0000 H   0  0  0  0  0  0  0  0  0  0  0  0
    3.1951   -1.1900    0.0000 H   0  0  0  0  0  0  0  0  0  0  0  0
    5.1350   -2.6900    0.0000 H   0  0  0  0  0  0  0  0  0  0  0  0
    2.3291   -4.3100    0.0000 H   0  0  0  0  0  0  0  0  0  0  0  0
    3.7320   -5.1200    0.0000 H   0  0  0  0  0  0  0  0  0  0  0  0
  1 17  1  0  0  0  0
  2 19  1  0  0  0  0
  3 15  2  0  0  0  0
  4  6  1  0  0  0  0
  4 12  1  0  0  0  0
  4 13  1  0  0  0  0
  4 23  1  0  0  0  0
  5 15  1  0  0  0  0
  5 16  1  0  0  0  0
  5 41  1  0  0  0  0
  6  7  1  0  0  0  0
  6  8  1  0  0  0  0
  6 22  1  0  0  0  0
  7  9  1  0  0  0  0
  7 24  1  0  0  0  0
  7 25  1  0  0  0  0
  8 10  1  0  0  0  0
  8 26  1  0  0  0  0
  8 27  1  0  0  0  0
  9 11  1  0  0  0  0
  9 28  1  0  0  0  0
  9 29  1  0  0  0  0
 10 11  1  0  0  0  0
 10 30  1  0  0  0  0
 10 31  1  0  0  0  0
 11 32  1  0  0  0  0
 11 33  1  0  0  0  0
 12 14  1  0  0  0  0
 12 34  1  0  0  0  0
 12 35  1  0  0  0  0
 13 36  1  0  0  0  0
 13 37  1  0  0  0  0
 13 38  1  0  0  0  0
 14 15  1  0  0  0  0
 14 39  1  0  0  0  0
 14 40  1  0  0  0  0
 16 17  2  0  0  0  0
 16 18  1  0  0  0  0
 17 20  1  0  0  0  0
 18 19  2  0  0  0  0
 18 42  1  0  0  0  0
 19 21  1  0  0  0  0
 20 21  2  0  0  0  0
 20 43  1  0  0  0  0
 21 44  1  0  0  0  0
M  CHG  1   4   1
M  END
> <PUBCHEM_COMPOUND_CID>
30099686

> <PUBCHEM_COMPOUND_CANONICALIZED>
1

> <PUBCHEM_CACTVS_COMPLEXITY>
334

> <PUBCHEM_CACTVS_HBOND_ACCEPTOR>
1

> <PUBCHEM_CACTVS_HBOND_DONOR>
2

> <PUBCHEM_CACTVS_ROTATABLE_BOND>
5

> <PUBCHEM_CACTVS_SUBSKEYS>
AAADceB7IAAGAAAAAAAAAAAAAAAAAAAAAAAwYAAAAAAAAAABAAAAHgIQAAAACCrBkCQywIPAAACIACVSUACCAAAhBwAIiIEIZogIICrB05HEIAhglADIyAcQAAAAAAAQAAIAABAAACAABAAAIAAAAAAAAA==

> <PUBCHEM_IUPAC_OPENEYE_NAME>
cyclohexyl-[3-(2,5-dichloroanilino)-3-oxo-propyl]-methyl-ammonium

> <PUBCHEM_IUPAC_CAS_NAME>
cyclohexyl-[3-(2,5-dichloroanilino)-3-oxopropyl]-methylammonium

> <PUBCHEM_IUPAC_NAME>
cyclohexyl-[3-(2,5-dichloroanilino)-3-oxopropyl]-methylazanium

> <PUBCHEM_IUPAC_SYSTEMATIC_NAME>
[3-[[2,5-bis(chloranyl)phenyl]amino]-3-oxidanylidene-propyl]-cyclohexyl-methyl-azanium

> <PUBCHEM_IUPAC_TRADITIONAL_NAME>
cyclohexyl-[3-(2,5-dichloroanilino)-3-keto-propyl]-methyl-ammonium

> <PUBCHEM_IUPAC_INCHI>
InChI=1S/C16H22Cl2N2O/c1-20(13-5-3-2-4-6-13)10-9-16(21)19-15-11-12(17)7-8-14(15)18/h7-8,11,13H,2-6,9-10H2,1H3,(H,19,21)/p+1

> <PUBCHEM_IUPAC_INCHIKEY>
REBGJNICRNGQDK-UHFFFAOYSA-O

> <PUBCHEM_XLOGP3>
4.5

> <PUBCHEM_EXACT_MASS>
329.118744

> <PUBCHEM_MOLECULAR_FORMULA>
C16H23Cl2N2O+

> <PUBCHEM_MOLECULAR_WEIGHT>
330.27262

> <PUBCHEM_OPENEYE_CAN_SMILES>
C[NH+](CCC(=O)NC1=C(C=CC(=C1)Cl)Cl)C2CCCCC2

> <PUBCHEM_OPENEYE_ISO_SMILES>
C[NH+](CCC(=O)NC1=C(C=CC(=C1)Cl)Cl)C2CCCCC2

> <PUBCHEM_CACTVS_TPSA>
33.5

> <PUBCHEM_MONOISOTOPIC_WEIGHT>
329.118744

> <PUBCHEM_TOTAL_CHARGE>
1

> <PUBCHEM_HEAVY_ATOM_COUNT>
21

> <PUBCHEM_ATOM_DEF_STEREO_COUNT>
0

> <PUBCHEM_ATOM_UDEF_STEREO_COUNT>
0

> <PUBCHEM_BOND_DEF_STEREO_COUNT>
0

> <PUBCHEM_BOND_UDEF_STEREO_COUNT>
0

> <PUBCHEM_ISOTOPIC_ATOM_COUNT>
0

> <PUBCHEM_COMPONENT_COUNT>
1

> <PUBCHEM_CACTVS_TAUTO_COUNT>
3

> <PUBCHEM_COORDINATE_TYPE>
1
5
255

> <PUBCHEM_BONDANNOTATIONS>
16  17  8
16  18  8
17  20  8
18  19  8
19  21  8
20  21  8

$$$$
