5628541
  -OEChem-03221309122D

 38 39  0     0  0  0  0  0  0999 V2000
    7.0000   -0.1340    0.0000 N   0  3  0  0  0  0  0  0  0  0  0  0
    7.0000    1.8660    0.0000 N   0  3  0  0  0  0  0  0  0  0  0  0
    6.1340    0.3660    0.0000 C   0  0  0  0  0  0  0  0  0  0  0  0
    7.8660    0.3660    0.0000 C   0  0  0  0  0  0  0  0  0  0  0  0
    7.8660    1.3660    0.0000 C   0  0  0  0  0  0  0  0  0  0  0  0
    6.1340    1.3660    0.0000 C   0  0  0  0  0  0  0  0  0  0  0  0
    6.5000   -1.0000    0.0000 C   0  0  0  0  0  0  0  0  0  0  0  0
    7.5000    2.7320    0.0000 C   0  0  0  0  0  0  0  0  0  0  0  0
    5.5000   -1.0000    0.0000 C   0  0  0  0  0  0  0  0  0  0  0  0
    5.0000   -1.8660    0.0000 C   0  0  0  0  0  0  0  0  0  0  0  0
    4.0000   -1.8660    0.0000 C   0  0  0  0  0  0  0  0  0  0  0  0
    3.5000   -2.7320    0.0000 C   0  0  0  0  0  0  0  0  0  0  0  0
    3.5000   -1.0000    0.0000 C   0  0  0  0  0  0  0  0  0  0  0  0
    2.5000   -2.7320    0.0000 C   0  0  0  0  0  0  0  0  0  0  0  0
    2.5000   -1.0000    0.0000 C   0  0  0  0  0  0  0  0  0  0  0  0
    2.0000   -1.8660    0.0000 C   0  0  0  0  0  0  0  0  0  0  0  0
    7.3100   -0.6709    0.0000 H   0  0  0  0  0  0  0  0  0  0  0  0
    6.6900    2.4030    0.0000 H   0  0  0  0  0  0  0  0  0  0  0  0
    5.5234    0.4737    0.0000 H   0  0  0  0  0  0  0  0  0  0  0  0
    5.9219   -0.2166    0.0000 H   0  0  0  0  0  0  0  0  0  0  0  0
    8.0781   -0.2166    0.0000 H   0  0  0  0  0  0  0  0  0  0  0  0
    8.4766    0.4737    0.0000 H   0  0  0  0  0  0  0  0  0  0  0  0
    5.9219    1.9486    0.0000 H   0  0  0  0  0  0  0  0  0  0  0  0
    5.5234    1.2584    0.0000 H   0  0  0  0  0  0  0  0  0  0  0  0
    8.4766    1.2584    0.0000 H   0  0  0  0  0  0  0  0  0  0  0  0
    8.0781    1.9486    0.0000 H   0  0  0  0  0  0  0  0  0  0  0  0
    6.3923   -1.6106    0.0000 H   0  0  0  0  0  0  0  0  0  0  0  0
    7.0826   -1.2120    0.0000 H   0  0  0  0  0  0  0  0  0  0  0  0
    8.0369    2.4220    0.0000 H   0  0  0  0  0  0  0  0  0  0  0  0
    7.8100    3.2690    0.0000 H   0  0  0  0  0  0  0  0  0  0  0  0
    6.9631    3.0420    0.0000 H   0  0  0  0  0  0  0  0  0  0  0  0
    5.1900   -0.4631    0.0000 H   0  0  0  0  0  0  0  0  0  0  0  0
    5.3100   -2.4030    0.0000 H   0  0  0  0  0  0  0  0  0  0  0  0
    3.8100   -3.2690    0.0000 H   0  0  0  0  0  0  0  0  0  0  0  0
    3.8100   -0.4631    0.0000 H   0  0  0  0  0  0  0  0  0  0  0  0
    2.1900   -3.2690    0.0000 H   0  0  0  0  0  0  0  0  0  0  0  0
    2.1900   -0.4631    0.0000 H   0  0  0  0  0  0  0  0  0  0  0  0
    1.3800   -1.8660    0.0000 H   0  0  0  0  0  0  0  0  0  0  0  0
  1  3  1  0  0  0  0
  1  4  1  0  0  0  0
  1  7  1  0  0  0  0
  1 17  1  0  0  0  0
  2  5  1  0  0  0  0
  2  6  1  0  0  0  0
  2  8  1  0  0  0  0
  2 18  1  0  0  0  0
  3  6  1  0  0  0  0
  3 19  1  0  0  0  0
  3 20  1  0  0  0  0
  4  5  1  0  0  0  0
  4 21  1  0  0  0  0
  4 22  1  0  0  0  0
  5 25  1  0  0  0  0
  5 26  1  0  0  0  0
  6 23  1  0  0  0  0
  6 24  1  0  0  0  0
  7  9  1  0  0  0  0
  7 27  1  0  0  0  0
  7 28  1  0  0  0  0
  8 29  1  0  0  0  0
  8 30  1  0  0  0  0
  8 31  1  0  0  0  0
  9 10  2  0  0  0  0
  9 32  1  0  0  0  0
 10 11  1  0  0  0  0
 10 33  1  0  0  0  0
 11 12  2  0  0  0  0
 11 13  1  0  0  0  0
 12 14  1  0  0  0  0
 12 34  1  0  0  0  0
 13 15  2  0  0  0  0
 13 35  1  0  0  0  0
 14 16  2  0  0  0  0
 14 36  1  0  0  0  0
 15 16  1  0  0  0  0
 15 37  1  0  0  0  0
 16 38  1  0  0  0  0
M  CHG  2   1   1   2   1
M  END
> <PUBCHEM_COMPOUND_CID>
5628541

> <PUBCHEM_COMPOUND_CANONICALIZED>
1

> <PUBCHEM_CACTVS_COMPLEXITY>
211

> <PUBCHEM_CACTVS_HBOND_ACCEPTOR>
0

> <PUBCHEM_CACTVS_HBOND_DONOR>
2

> <PUBCHEM_CACTVS_ROTATABLE_BOND>
3

> <PUBCHEM_CACTVS_SUBSKEYS>
AAADceBzAAAAAAAAAAAAAAAAAAAAAAAAAAA8QAAAAAAAAAABAAAAHAAQAAAADADBGAQyAIPAAACAAiBCAACCAAAgAAAIiIAIAIgIYCKAERCQIAAgkACIiAcAgAAOAAAAAAAAAAAAAAAAAAAAAAAAAAAAAA==

> <PUBCHEM_IUPAC_OPENEYE_NAME>
1-[(E)-cinnamyl]-4-methyl-piperazine-1,4-diium

> <PUBCHEM_IUPAC_CAS_NAME>
1-methyl-4-[(E)-3-phenylprop-2-enyl]piperazine-1,4-diium

> <PUBCHEM_IUPAC_NAME>
1-methyl-4-[(E)-3-phenylprop-2-enyl]piperazine-1,4-diium

> <PUBCHEM_IUPAC_SYSTEMATIC_NAME>
1-methyl-4-[(E)-3-phenylprop-2-enyl]piperazine-1,4-diium

> <PUBCHEM_IUPAC_TRADITIONAL_NAME>
1-[(E)-cinnamyl]-4-methyl-piperazine-1,4-diium

> <PUBCHEM_IUPAC_INCHI>
InChI=1S/C14H20N2/c1-15-10-12-16(13-11-15)9-5-8-14-6-3-2-4-7-14/h2-8H,9-13H2,1H3/p+2/b8-5+

> <PUBCHEM_IUPAC_INCHIKEY>
DYHUXIARKJHEDW-VMPITWQZSA-P

> <PUBCHEM_XLOGP3>
2.6

> <PUBCHEM_EXACT_MASS>
218.178299

> <PUBCHEM_MOLECULAR_FORMULA>
C14H22N2+2

> <PUBCHEM_MOLECULAR_WEIGHT>
218.33788

> <PUBCHEM_OPENEYE_CAN_SMILES>
C[NH+]1CC[NH+](CC1)CC=CC2=CC=CC=C2

> <PUBCHEM_OPENEYE_ISO_SMILES>
C[NH+]1CC[NH+](CC1)C/C=C/C2=CC=CC=C2

> <PUBCHEM_CACTVS_TPSA>
8.9

> <PUBCHEM_MONOISOTOPIC_WEIGHT>
218.178299

> <PUBCHEM_TOTAL_CHARGE>
2

> <PUBCHEM_HEAVY_ATOM_COUNT>
16

> <PUBCHEM_ATOM_DEF_STEREO_COUNT>
0

> <PUBCHEM_ATOM_UDEF_STEREO_COUNT>
0

> <PUBCHEM_BOND_DEF_STEREO_COUNT>
1

> <PUBCHEM_BOND_UDEF_STEREO_COUNT>
0

> <PUBCHEM_ISOTOPIC_ATOM_COUNT>
0

> <PUBCHEM_COMPONENT_COUNT>
1

> <PUBCHEM_CACTVS_TAUTO_COUNT>
1

> <PUBCHEM_COORDINATE_TYPE>
1
5
255

> <PUBCHEM_BONDANNOTATIONS>
11  12  8
11  13  8
12  14  8
13  15  8
14  16  8
15  16  8

$$$$
5628962
  -OEChem-03221309122D

 41 42  0     0  0  0  0  0  0999 V2000
    7.0000    1.4330    0.0000 N   0  3  0  0  0  0  0  0  0  0  0  0
    7.0000   -0.5670    0.0000 N   0  3  0  0  0  0  0  0  0  0  0  0
    7.8660    0.9330    0.0000 C   0  0  0  0  0  0  0  0  0  0  0  0
    6.1340    0.9330    0.0000 C   0  0  0  0  0  0  0  0  0  0  0  0
    6.1340   -0.0670    0.0000 C   0  0  0  0  0  0  0  0  0  0  0  0
    7.8660   -0.0670    0.0000 C   0  0  0  0  0  0  0  0  0  0  0  0
    7.5000    2.2990    0.0000 C   0  0  0  0  0  0  0  0  0  0  0  0
    6.5000   -1.4330    0.0000 C   0  0  0  0  0  0  0  0  0  0  0  0
    7.0000    3.1651    0.0000 C   0  0  0  0  0  0  0  0  0  0  0  0
    5.5000   -1.4330    0.0000 C   0  0  0  0  0  0  0  0  0  0  0  0
    5.0000   -2.2990    0.0000 C   0  0  0  0  0  0  0  0  0  0  0  0
    4.0000   -2.2990    0.0000 C   0  0  0  0  0  0  0  0  0  0  0  0
    3.5000   -1.4330    0.0000 C   0  0  0  0  0  0  0  0  0  0  0  0
    3.5000   -3.1651    0.0000 C   0  0  0  0  0  0  0  0  0  0  0  0
    2.5000   -1.4330    0.0000 C   0  0  0  0  0  0  0  0  0  0  0  0
    2.5000   -3.1651    0.0000 C   0  0  0  0  0  0  0  0  0  0  0  0
    2.0000   -2.2990    0.0000 C   0  0  0  0  0  0  0  0  0  0  0  0
    6.6900    1.9700    0.0000 H   0  0  0  0  0  0  0  0  0  0  0  0
    7.3100   -1.1039    0.0000 H   0  0  0  0  0  0  0  0  0  0  0  0
    8.4766    0.8254    0.0000 H   0  0  0  0  0  0  0  0  0  0  0  0
    8.0781    1.5156    0.0000 H   0  0  0  0  0  0  0  0  0  0  0  0
    5.9219    1.5156    0.0000 H   0  0  0  0  0  0  0  0  0  0  0  0
    5.5234    0.8254    0.0000 H   0  0  0  0  0  0  0  0  0  0  0  0
    8.0781   -0.6496    0.0000 H   0  0  0  0  0  0  0  0  0  0  0  0
    8.4766    0.0407    0.0000 H   0  0  0  0  0  0  0  0  0  0  0  0
    5.5234    0.0407    0.0000 H   0  0  0  0  0  0  0  0  0  0  0  0
    5.9219   -0.6496    0.0000 H   0  0  0  0  0  0  0  0  0  0  0  0
    7.9750    1.9005    0.0000 H   0  0  0  0  0  0  0  0  0  0  0  0
    7.9750    2.6976    0.0000 H   0  0  0  0  0  0  0  0  0  0  0  0
    6.3923   -2.0436    0.0000 H   0  0  0  0  0  0  0  0  0  0  0  0
    7.0826   -1.6451    0.0000 H   0  0  0  0  0  0  0  0  0  0  0  0
    7.5369    3.4751    0.0000 H   0  0  0  0  0  0  0  0  0  0  0  0
    6.6900    3.7020    0.0000 H   0  0  0  0  0  0  0  0  0  0  0  0
    6.4631    2.8551    0.0000 H   0  0  0  0  0  0  0  0  0  0  0  0
    5.1900   -0.8961    0.0000 H   0  0  0  0  0  0  0  0  0  0  0  0
    5.3100   -2.8360    0.0000 H   0  0  0  0  0  0  0  0  0  0  0  0
    3.8100   -0.8961    0.0000 H   0  0  0  0  0  0  0  0  0  0  0  0
    3.8100   -3.7020    0.0000 H   0  0  0  0  0  0  0  0  0  0  0  0
    2.1900   -0.8961    0.0000 H   0  0  0  0  0  0  0  0  0  0  0  0
    2.1900   -3.7020    0.0000 H   0  0  0  0  0  0  0  0  0  0  0  0
    1.3800   -2.2990    0.0000 H   0  0  0  0  0  0  0  0  0  0  0  0
  1  3  1  0  0  0  0
  1  4  1  0  0  0  0
  1  7  1  0  0  0  0
  1 18  1  0  0  0  0
  2  5  1  0  0  0  0
  2  6  1  0  0  0  0
  2  8  1  0  0  0  0
  2 19  1  0  0  0  0
  3  6  1  0  0  0  0
  3 20  1  0  0  0  0
  3 21  1  0  0  0  0
  4  5  1  0  0  0  0
  4 22  1  0  0  0  0
  4 23  1  0  0  0  0
  5 26  1  0  0  0  0
  5 27  1  0  0  0  0
  6 24  1  0  0  0  0
  6 25  1  0  0  0  0
  7  9  1  0  0  0  0
  7 28  1  0  0  0  0
  7 29  1  0  0  0  0
  8 10  1  0  0  0  0
  8 30  1  0  0  0  0
  8 31  1  0  0  0  0
  9 32  1  0  0  0  0
  9 33  1  0  0  0  0
  9 34  1  0  0  0  0
 10 11  2  0  0  0  0
 10 35  1  0  0  0  0
 11 12  1  0  0  0  0
 11 36  1  0  0  0  0
 12 13  2  0  0  0  0
 12 14  1  0  0  0  0
 13 15  1  0  0  0  0
 13 37  1  0  0  0  0
 14 16  2  0  0  0  0
 14 38  1  0  0  0  0
 15 17  2  0  0  0  0
 15 39  1  0  0  0  0
 16 17  1  0  0  0  0
 16 40  1  0  0  0  0
 17 41  1  0  0  0  0
M  CHG  2   1   1   2   1
M  END
> <PUBCHEM_COMPOUND_CID>
5628962

> <PUBCHEM_COMPOUND_CANONICALIZED>
1

> <PUBCHEM_CACTVS_COMPLEXITY>
223

> <PUBCHEM_CACTVS_HBOND_ACCEPTOR>
0

> <PUBCHEM_CACTVS_HBOND_DONOR>
2

> <PUBCHEM_CACTVS_ROTATABLE_BOND>
4

> <PUBCHEM_CACTVS_SUBSKEYS>
AAADceBzAAAAAAAAAAAAAAAAAAAAAAAAAAA8QAAAAAAAAAABAAAAHAAQAAAADADBGAQyAIPAAACAAiBCAACCAAAgAAAIiIAIAIgIYCKAERCQIAAgkACIiAcAgAAOAAAAAAAAAAAAAAAAAAAAAAAAAAAAAA==

> <PUBCHEM_IUPAC_OPENEYE_NAME>
1-[(E)-cinnamyl]-4-ethyl-piperazine-1,4-diium

> <PUBCHEM_IUPAC_CAS_NAME>
1-ethyl-4-[(E)-3-phenylprop-2-enyl]piperazine-1,4-diium

> <PUBCHEM_IUPAC_NAME>
1-ethyl-4-[(E)-3-phenylprop-2-enyl]piperazine-1,4-diium

> <PUBCHEM_IUPAC_SYSTEMATIC_NAME>
1-ethyl-4-[(E)-3-phenylprop-2-enyl]piperazine-1,4-diium

> <PUBCHEM_IUPAC_TRADITIONAL_NAME>
1-[(E)-cinnamyl]-4-ethyl-piperazine-1,4-diium

> <PUBCHEM_IUPAC_INCHI>
InChI=1S/C15H22N2/c1-2-16-11-13-17(14-12-16)10-6-9-15-7-4-3-5-8-15/h3-9H,2,10-14H2,1H3/p+2/b9-6+

> <PUBCHEM_IUPAC_INCHIKEY>
NNVNWHFJCBUKDN-RMKNXTFCSA-P

> <PUBCHEM_XLOGP3>
2.9

> <PUBCHEM_EXACT_MASS>
232.193949

> <PUBCHEM_MOLECULAR_FORMULA>
C15H24N2+2

> <PUBCHEM_MOLECULAR_WEIGHT>
232.36446

> <PUBCHEM_OPENEYE_CAN_SMILES>
CC[NH+]1CC[NH+](CC1)CC=CC2=CC=CC=C2

> <PUBCHEM_OPENEYE_ISO_SMILES>
CC[NH+]1CC[NH+](CC1)C/C=C/C2=CC=CC=C2

> <PUBCHEM_CACTVS_TPSA>
8.9

> <PUBCHEM_MONOISOTOPIC_WEIGHT>
232.193949

> <PUBCHEM_TOTAL_CHARGE>
2

> <PUBCHEM_HEAVY_ATOM_COUNT>
17

> <PUBCHEM_ATOM_DEF_STEREO_COUNT>
0

> <PUBCHEM_ATOM_UDEF_STEREO_COUNT>
0

> <PUBCHEM_BOND_DEF_STEREO_COUNT>
1

> <PUBCHEM_BOND_UDEF_STEREO_COUNT>
0

> <PUBCHEM_ISOTOPIC_ATOM_COUNT>
0

> <PUBCHEM_COMPONENT_COUNT>
1

> <PUBCHEM_CACTVS_TAUTO_COUNT>
1

> <PUBCHEM_COORDINATE_TYPE>
1
5
255

> <PUBCHEM_BONDANNOTATIONS>
12  13  8
12  14  8
13  15  8
14  16  8
15  17  8
16  17  8

$$$$
5643825
  -OEChem-03221309122D

 45 46  0     1  0  0  0  0  0999 V2000
    2.8660   -0.7500    0.0000 O   0  0  0  0  0  0  0  0  0  0  0  0
    3.7320    0.7500    0.0000 N   0  0  0  0  0  0  0  0  0  0  0  0
    2.8660    1.2500    0.0000 C   0  0  2  0  0  0  0  0  0  0  0  0
    2.8660    2.2500    0.0000 C   0  0  0  0  0  0  0  0  0  0  0  0
    2.0000    2.7500    0.0000 C   0  0  0  0  0  0  0  0  0  0  0  0
    2.0000    0.7500    0.0000 C   0  0  0  0  0  0  0  0  0  0  0  0
    2.0000    3.7500    0.0000 C   0  0  0  0  0  0  0  0  0  0  0  0
    3.7320   -0.2500    0.0000 C   0  0  0  0  0  0  0  0  0  0  0  0
    4.5981   -0.7500    0.0000 C   0  0  0  0  0  0  0  0  0  0  0  0
    4.5981   -1.7500    0.0000 C   0  0  0  0  0  0  0  0  0  0  0  0
    5.4641   -0.2500    0.0000 C   0  0  0  0  0  0  0  0  0  0  0  0
    6.3301   -0.7500    0.0000 C   0  0  0  0  0  0  0  0  0  0  0  0
    3.7320   -2.2500    0.0000 C   0  0  0  0  0  0  0  0  0  0  0  0
    5.4641   -2.2500    0.0000 C   0  0  0  0  0  0  0  0  0  0  0  0
    3.7320   -3.2500    0.0000 C   0  0  0  0  0  0  0  0  0  0  0  0
    5.4641   -3.2500    0.0000 C   0  0  0  0  0  0  0  0  0  0  0  0
    6.3301   -1.7500    0.0000 C   0  0  0  0  0  0  0  0  0  0  0  0
    7.1962   -0.2500    0.0000 C   0  0  0  0  0  0  0  0  0  0  0  0
    4.5981   -3.7500    0.0000 C   0  0  0  0  0  0  0  0  0  0  0  0
    7.1962   -2.2500    0.0000 C   0  0  0  0  0  0  0  0  0  0  0  0
    8.0622   -0.7500    0.0000 C   0  0  0  0  0  0  0  0  0  0  0  0
    8.0622   -1.7500    0.0000 C   0  0  0  0  0  0  0  0  0  0  0  0
    2.8660    0.6300    0.0000 H   0  0  0  0  0  0  0  0  0  0  0  0
    3.4766    2.1423    0.0000 H   0  0  0  0  0  0  0  0  0  0  0  0
    3.0781    2.8326    0.0000 H   0  0  0  0  0  0  0  0  0  0  0  0
    1.3894    2.8577    0.0000 H   0  0  0  0  0  0  0  0  0  0  0  0
    1.7880    2.1674    0.0000 H   0  0  0  0  0  0  0  0  0  0  0  0
    4.2690    1.0600    0.0000 H   0  0  0  0  0  0  0  0  0  0  0  0
    1.6900    1.2869    0.0000 H   0  0  0  0  0  0  0  0  0  0  0  0
    1.4631    0.4400    0.0000 H   0  0  0  0  0  0  0  0  0  0  0  0
    2.3100    0.2131    0.0000 H   0  0  0  0  0  0  0  0  0  0  0  0
    2.6200    3.7500    0.0000 H   0  0  0  0  0  0  0  0  0  0  0  0
    2.0000    4.3700    0.0000 H   0  0  0  0  0  0  0  0  0  0  0  0
    1.3800    3.7500    0.0000 H   0  0  0  0  0  0  0  0  0  0  0  0
    5.4641    0.3700    0.0000 H   0  0  0  0  0  0  0  0  0  0  0  0
    3.1951   -1.9400    0.0000 H   0  0  0  0  0  0  0  0  0  0  0  0
    6.0010   -1.9400    0.0000 H   0  0  0  0  0  0  0  0  0  0  0  0
    5.7932   -2.0600    0.0000 H   0  0  0  0  0  0  0  0  0  0  0  0
    7.1962    0.3700    0.0000 H   0  0  0  0  0  0  0  0  0  0  0  0
    3.1951   -3.5600    0.0000 H   0  0  0  0  0  0  0  0  0  0  0  0
    6.0010   -3.5600    0.0000 H   0  0  0  0  0  0  0  0  0  0  0  0
    4.5981   -4.3700    0.0000 H   0  0  0  0  0  0  0  0  0  0  0  0
    7.1962   -2.8700    0.0000 H   0  0  0  0  0  0  0  0  0  0  0  0
    8.5991   -0.4400    0.0000 H   0  0  0  0  0  0  0  0  0  0  0  0
    8.5991   -2.0600    0.0000 H   0  0  0  0  0  0  0  0  0  0  0  0
  1  8  2  0  0  0  0
  3  2  1  1  0  0  0
  2  8  1  0  0  0  0
  2 28  1  0  0  0  0
  3  4  1  0  0  0  0
  3  6  1  0  0  0  0
  3 23  1  0  0  0  0
  4  5  1  0  0  0  0
  4 24  1  0  0  0  0
  4 25  1  0  0  0  0
  5  7  1  0  0  0  0
  5 26  1  0  0  0  0
  5 27  1  0  0  0  0
  6 29  1  0  0  0  0
  6 30  1  0  0  0  0
  6 31  1  0  0  0  0
  7 32  1  0  0  0  0
  7 33  1  0  0  0  0
  7 34  1  0  0  0  0
  8  9  1  0  0  0  0
  9 10  1  0  0  0  0
  9 11  2  0  0  0  0
 10 13  2  0  0  0  0
 10 14  1  0  0  0  0
 11 12  1  0  0  0  0
 11 35  1  0  0  0  0
 12 17  2  0  0  0  0
 12 18  1  0  0  0  0
 13 15  1  0  0  0  0
 13 36  1  0  0  0  0
 14 16  2  0  0  0  0
 14 37  1  0  0  0  0
 15 19  2  0  0  0  0
 15 40  1  0  0  0  0
 16 19  1  0  0  0  0
 16 41  1  0  0  0  0
 17 20  1  0  0  0  0
 17 38  1  0  0  0  0
 18 21  2  0  0  0  0
 18 39  1  0  0  0  0
 19 42  1  0  0  0  0
 20 22  2  0  0  0  0
 20 43  1  0  0  0  0
 21 22  1  0  0  0  0
 21 44  1  0  0  0  0
 22 45  1  0  0  0  0
M  END
> <PUBCHEM_COMPOUND_CID>
5643825

> <PUBCHEM_COMPOUND_CANONICALIZED>
1

> <PUBCHEM_CACTVS_COMPLEXITY>
362

> <PUBCHEM_CACTVS_HBOND_ACCEPTOR>
1

> <PUBCHEM_CACTVS_HBOND_DONOR>
1

> <PUBCHEM_CACTVS_ROTATABLE_BOND>
6

> <PUBCHEM_CACTVS_SUBSKEYS>
AAADceB6IAAAAAAAAAAAAAAAAAAAAAAAAAAwYAAAAAAAAAABQAAAHgAQAAAADCjBmAQyAILAAACIAiFSEACCAAAgAAAIiIEIAMgIIDKAlRGEIAAglgCIiYcYiICOAAAAAAAAAAAAAAAAAAAAAAAAAAAAAA==

> <PUBCHEM_IUPAC_OPENEYE_NAME>
(E)-N-[(1S)-1-methylbutyl]-2,3-diphenyl-prop-2-enamide

> <PUBCHEM_IUPAC_CAS_NAME>
(E)-N-[(2S)-pentan-2-yl]-2,3-diphenyl-2-propenamide

> <PUBCHEM_IUPAC_NAME>
(E)-N-[(2S)-pentan-2-yl]-2,3-diphenylprop-2-enamide

> <PUBCHEM_IUPAC_SYSTEMATIC_NAME>
(E)-N-[(2S)-pentan-2-yl]-2,3-diphenyl-prop-2-enamide

> <PUBCHEM_IUPAC_TRADITIONAL_NAME>
(E)-N-[(1S)-1-methylbutyl]-2,3-diphenyl-acrylamide

> <PUBCHEM_IUPAC_INCHI>
InChI=1S/C20H23NO/c1-3-10-16(2)21-20(22)19(18-13-8-5-9-14-18)15-17-11-6-4-7-12-17/h4-9,11-16H,3,10H2,1-2H3,(H,21,22)/b19-15+/t16-/m0/s1

> <PUBCHEM_IUPAC_INCHIKEY>
WCEUKBCYYLIZFO-DAMBIUFKSA-N

> <PUBCHEM_XLOGP3>
4.4

> <PUBCHEM_EXACT_MASS>
293.177964

> <PUBCHEM_MOLECULAR_FORMULA>
C20H23NO

> <PUBCHEM_MOLECULAR_WEIGHT>
293.40272

> <PUBCHEM_OPENEYE_CAN_SMILES>
CCCC(C)NC(=O)C(=CC1=CC=CC=C1)C2=CC=CC=C2

> <PUBCHEM_OPENEYE_ISO_SMILES>
CCC[C@H](C)NC(=O)/C(=C/C1=CC=CC=C1)/C2=CC=CC=C2

> <PUBCHEM_CACTVS_TPSA>
29.1

> <PUBCHEM_MONOISOTOPIC_WEIGHT>
293.177964

> <PUBCHEM_TOTAL_CHARGE>
0

> <PUBCHEM_HEAVY_ATOM_COUNT>
22

> <PUBCHEM_ATOM_DEF_STEREO_COUNT>
1

> <PUBCHEM_ATOM_UDEF_STEREO_COUNT>
0

> <PUBCHEM_BOND_DEF_STEREO_COUNT>
1

> <PUBCHEM_BOND_UDEF_STEREO_COUNT>
0

> <PUBCHEM_ISOTOPIC_ATOM_COUNT>
0

> <PUBCHEM_COMPONENT_COUNT>
1

> <PUBCHEM_CACTVS_TAUTO_COUNT>
2

> <PUBCHEM_COORDINATE_TYPE>
1
5
255

> <PUBCHEM_BONDANNOTATIONS>
10  13  8
10  14  8
12  17  8
12  18  8
13  15  8
14  16  8
15  19  8
16  19  8
17  20  8
18  21  8
3  2  5
20  22  8
21  22  8

$$$$
5645358
  -OEChem-03221309122D

 52 55  0     0  0  0  0  0  0999 V2000
    5.9674    1.3240    0.0000 N   0  3  0  0  0  0  0  0  0  0  0  0
    7.8685    0.7027    0.0000 N   0  3  0  0  0  0  0  0  0  0  0  0
    4.6783   -1.4422    0.0000 N   0  0  0  0  0  0  0  0  0  0  0  0
    6.7117    1.9918    0.0000 C   0  0  0  0  0  0  0  0  0  0  0  0
    6.1737    0.3455    0.0000 C   0  0  0  0  0  0  0  0  0  0  0  0
    7.6623    1.6812    0.0000 C   0  0  0  0  0  0  0  0  0  0  0  0
    7.1242    0.0348    0.0000 C   0  0  0  0  0  0  0  0  0  0  0  0
    4.9889    1.1178    0.0000 C   0  0  0  0  0  0  0  0  0  0  0  0
    8.8470    0.9089    0.0000 C   0  0  0  0  0  0  0  0  0  0  0  0
    4.6783    0.1673    0.0000 C   0  0  0  0  0  0  0  0  0  0  0  0
    9.5148    0.1646    0.0000 C   0  0  0  0  0  0  0  0  0  0  0  0
    3.7320   -0.1375    0.0000 C   0  0  0  0  0  0  0  0  0  0  0  0
    5.2619   -0.6375    0.0000 C   0  0  0  0  0  0  0  0  0  0  0  0
    3.7320   -1.1375    0.0000 C   0  0  0  0  0  0  0  0  0  0  0  0
   10.4933    0.3708    0.0000 C   0  0  0  0  0  0  0  0  0  0  0  0
    2.8660    0.3625    0.0000 C   0  0  0  0  0  0  0  0  0  0  0  0
    2.8660   -1.6375    0.0000 C   0  0  0  0  0  0  0  0  0  0  0  0
    2.0000   -0.1375    0.0000 C   0  0  0  0  0  0  0  0  0  0  0  0
    2.0000   -1.1375    0.0000 C   0  0  0  0  0  0  0  0  0  0  0  0
   11.1612   -0.3735    0.0000 C   0  0  0  0  0  0  0  0  0  0  0  0
   10.8505   -1.3240    0.0000 C   0  0  0  0  0  0  0  0  0  0  0  0
   12.1397   -0.1673    0.0000 C   0  0  0  0  0  0  0  0  0  0  0  0
   11.5184   -2.0683    0.0000 C   0  0  0  0  0  0  0  0  0  0  0  0
   12.8075   -0.9116    0.0000 C   0  0  0  0  0  0  0  0  0  0  0  0
   12.4969   -1.8621    0.0000 C   0  0  0  0  0  0  0  0  0  0  0  0
    5.2996    2.0683    0.0000 H   0  0  0  0  0  0  0  0  0  0  0  0
    8.2825    0.2412    0.0000 H   0  0  0  0  0  0  0  0  0  0  0  0
    7.0038    2.5388    0.0000 H   0  0  0  0  0  0  0  0  0  0  0  0
    5.5540    0.3249    0.0000 H   0  0  0  0  0  0  0  0  0  0  0  0
    6.0863   -0.2683    0.0000 H   0  0  0  0  0  0  0  0  0  0  0  0
    6.2238    2.3744    0.0000 H   0  0  0  0  0  0  0  0  0  0  0  0
    6.8322   -0.5121    0.0000 H   0  0  0  0  0  0  0  0  0  0  0  0
    7.6121   -0.3477    0.0000 H   0  0  0  0  0  0  0  0  0  0  0  0
    8.2819    1.7018    0.0000 H   0  0  0  0  0  0  0  0  0  0  0  0
    7.7496    2.2950    0.0000 H   0  0  0  0  0  0  0  0  0  0  0  0
    4.9684    1.7374    0.0000 H   0  0  0  0  0  0  0  0  0  0  0  0
    4.3751    1.2051    0.0000 H   0  0  0  0  0  0  0  0  0  0  0  0
    9.3733    1.2365    0.0000 H   0  0  0  0  0  0  0  0  0  0  0  0
    8.6157    1.4842    0.0000 H   0  0  0  0  0  0  0  0  0  0  0  0
    9.3222   -0.4247    0.0000 H   0  0  0  0  0  0  0  0  0  0  0  0
    5.8819   -0.6375    0.0000 H   0  0  0  0  0  0  0  0  0  0  0  0
    4.8709   -2.0315    0.0000 H   0  0  0  0  0  0  0  0  0  0  0  0
    2.8660    0.9825    0.0000 H   0  0  0  0  0  0  0  0  0  0  0  0
   10.6859    0.9601    0.0000 H   0  0  0  0  0  0  0  0  0  0  0  0
    2.8660   -2.2575    0.0000 H   0  0  0  0  0  0  0  0  0  0  0  0
    1.4631    0.1725    0.0000 H   0  0  0  0  0  0  0  0  0  0  0  0
    1.4631   -1.4475    0.0000 H   0  0  0  0  0  0  0  0  0  0  0  0
   10.2438   -1.4519    0.0000 H   0  0  0  0  0  0  0  0  0  0  0  0
   12.3323    0.4221    0.0000 H   0  0  0  0  0  0  0  0  0  0  0  0
   11.3257   -2.6576    0.0000 H   0  0  0  0  0  0  0  0  0  0  0  0
   13.4142   -0.7837    0.0000 H   0  0  0  0  0  0  0  0  0  0  0  0
   12.9109   -2.3236    0.0000 H   0  0  0  0  0  0  0  0  0  0  0  0
  1  4  1  0  0  0  0
  1  5  1  0  0  0  0
  1  8  1  0  0  0  0
  1 26  1  0  0  0  0
  2  6  1  0  0  0  0
  2  7  1  0  0  0  0
  2  9  1  0  0  0  0
  2 27  1  0  0  0  0
  3 13  1  0  0  0  0
  3 14  1  0  0  0  0
  3 42  1  0  0  0  0
  4  6  1  0  0  0  0
  4 28  1  0  0  0  0
  4 31  1  0  0  0  0
  5  7  1  0  0  0  0
  5 29  1  0  0  0  0
  5 30  1  0  0  0  0
  6 34  1  0  0  0  0
  6 35  1  0  0  0  0
  7 32  1  0  0  0  0
  7 33  1  0  0  0  0
  8 10  1  0  0  0  0
  8 36  1  0  0  0  0
  8 37  1  0  0  0  0
  9 11  1  0  0  0  0
  9 38  1  0  0  0  0
  9 39  1  0  0  0  0
 10 12  1  0  0  0  0
 10 13  2  0  0  0  0
 11 15  2  0  0  0  0
 11 40  1  0  0  0  0
 12 14  1  0  0  0  0
 12 16  2  0  0  0  0
 13 41  1  0  0  0  0
 14 17  2  0  0  0  0
 15 20  1  0  0  0  0
 15 44  1  0  0  0  0
 16 18  1  0  0  0  0
 16 43  1  0  0  0  0
 17 19  1  0  0  0  0
 17 45  1  0  0  0  0
 18 19  2  0  0  0  0
 18 46  1  0  0  0  0
 19 47  1  0  0  0  0
 20 21  2  0  0  0  0
 20 22  1  0  0  0  0
 21 23  1  0  0  0  0
 21 48  1  0  0  0  0
 22 24  2  0  0  0  0
 22 49  1  0  0  0  0
 23 25  2  0  0  0  0
 23 50  1  0  0  0  0
 24 25  1  0  0  0  0
 24 51  1  0  0  0  0
 25 52  1  0  0  0  0
M  CHG  2   1   1   2   1
M  END
> <PUBCHEM_COMPOUND_CID>
5645358

> <PUBCHEM_COMPOUND_CANONICALIZED>
1

> <PUBCHEM_CACTVS_COMPLEXITY>
421

> <PUBCHEM_CACTVS_HBOND_ACCEPTOR>
0

> <PUBCHEM_CACTVS_HBOND_DONOR>
3

> <PUBCHEM_CACTVS_ROTATABLE_BOND>
5

> <PUBCHEM_CACTVS_SUBSKEYS>
AAADceB7AAAAAAAAAAAAAAAAAAAAAWAAAAA8YIAAAAAAAFgB9AAAHAAQAAAADAjBHgQ8wPPJkACgAzRnRACCgCAxAiAI2aA4ZJgIYOLA0ZGUIAhgkADIyAcQgMAOgAAAAAACAAAAAAAAAAQAAAAAAAAAAA==

> <PUBCHEM_IUPAC_OPENEYE_NAME>
3-[[4-[(E)-cinnamyl]piperazine-1,4-diium-1-yl]methyl]-1H-indole

> <PUBCHEM_IUPAC_CAS_NAME>
3-[[4-[(E)-3-phenylprop-2-enyl]-1-piperazine-1,4-diiumyl]methyl]-1H-indole

> <PUBCHEM_IUPAC_NAME>
3-[[4-[(E)-3-phenylprop-2-enyl]piperazine-1,4-diium-1-yl]methyl]-1H-indole

> <PUBCHEM_IUPAC_SYSTEMATIC_NAME>
3-[[4-[(E)-3-phenylprop-2-enyl]piperazine-1,4-diium-1-yl]methyl]-1H-indole

> <PUBCHEM_IUPAC_TRADITIONAL_NAME>
3-[[4-[(E)-cinnamyl]piperazine-1,4-diium-1-yl]methyl]-1H-indole

> <PUBCHEM_IUPAC_INCHI>
InChI=1S/C22H25N3/c1-2-7-19(8-3-1)9-6-12-24-13-15-25(16-14-24)18-20-17-23-22-11-5-4-10-21(20)22/h1-11,17,23H,12-16,18H2/p+2/b9-6+

> <PUBCHEM_IUPAC_INCHIKEY>
IGNXYLSQDZTEII-RMKNXTFCSA-P

> <PUBCHEM_XLOGP3>
3.7

> <PUBCHEM_EXACT_MASS>
333.220498

> <PUBCHEM_MOLECULAR_FORMULA>
C22H27N3+2

> <PUBCHEM_MOLECULAR_WEIGHT>
333.46988

> <PUBCHEM_OPENEYE_CAN_SMILES>
C1C[NH+](CC[NH+]1CC=CC2=CC=CC=C2)CC3=CNC4=CC=CC=C43

> <PUBCHEM_OPENEYE_ISO_SMILES>
C1C[NH+](CC[NH+]1C/C=C/C2=CC=CC=C2)CC3=CNC4=CC=CC=C43

> <PUBCHEM_CACTVS_TPSA>
24.7

> <PUBCHEM_MONOISOTOPIC_WEIGHT>
333.220498

> <PUBCHEM_TOTAL_CHARGE>
2

> <PUBCHEM_HEAVY_ATOM_COUNT>
25

> <PUBCHEM_ATOM_DEF_STEREO_COUNT>
0

> <PUBCHEM_ATOM_UDEF_STEREO_COUNT>
0

> <PUBCHEM_BOND_DEF_STEREO_COUNT>
1

> <PUBCHEM_BOND_UDEF_STEREO_COUNT>
0

> <PUBCHEM_ISOTOPIC_ATOM_COUNT>
0

> <PUBCHEM_COMPONENT_COUNT>
1

> <PUBCHEM_CACTVS_TAUTO_COUNT>
1

> <PUBCHEM_COORDINATE_TYPE>
1
5
255

> <PUBCHEM_BONDANNOTATIONS>
10  12  8
10  13  8
12  14  8
12  16  8
14  17  8
16  18  8
17  19  8
18  19  8
20  21  8
20  22  8
21  23  8
22  24  8
23  25  8
24  25  8
3  13  8
3  14  8

$$$$
