23844117
  -OEChem-11301217342D

 30 31  0     1  0  0  0  0  0999 V2000
    7.2622   -0.7194    0.0000 N   0  0  0  0  0  0  0  0  0  0  0  0
    6.3981   -0.2161    0.0000 C   0  0  3  0  0  0  0  0  0  0  0  0
    6.3981    0.8256    0.0000 C   0  0  0  0  0  0  0  0  0  0  0  0
    5.4920   -0.7299    0.0000 C   0  0  0  0  0  0  0  0  0  0  0  0
    5.4920    1.3394    0.0000 C   0  0  0  0  0  0  0  0  0  0  0  0
    4.5981   -0.1953    0.0000 C   0  0  0  0  0  0  0  0  0  0  0  0
    4.5981    0.8047    0.0000 C   0  0  0  0  0  0  0  0  0  0  0  0
    3.7320   -0.6953    0.0000 C   0  0  0  0  0  0  0  0  0  0  0  0
    3.7320    1.3047    0.0000 C   0  0  0  0  0  0  0  0  0  0  0  0
    2.8660   -0.1953    0.0000 C   0  0  0  0  0  0  0  0  0  0  0  0
    2.8660    0.8047    0.0000 C   0  0  0  0  0  0  0  0  0  0  0  0
    2.0000   -0.6953    0.0000 C   0  0  0  0  0  0  0  0  0  0  0  0
    2.0000    1.3047    0.0000 C   0  0  0  0  0  0  0  0  0  0  0  0
    6.9356    0.0929    0.0000 H   0  0  0  0  0  0  0  0  0  0  0  0
    7.0089    0.7195    0.0000 H   0  0  0  0  0  0  0  0  0  0  0  0
    6.6071    1.4092    0.0000 H   0  0  0  0  0  0  0  0  0  0  0  0
    5.0874   -1.1997    0.0000 H   0  0  0  0  0  0  0  0  0  0  0  0
    5.8856   -1.2089    0.0000 H   0  0  0  0  0  0  0  0  0  0  0  0
    5.8856    1.8184    0.0000 H   0  0  0  0  0  0  0  0  0  0  0  0
    5.0874    1.8092    0.0000 H   0  0  0  0  0  0  0  0  0  0  0  0
    3.7320   -1.3153    0.0000 H   0  0  0  0  0  0  0  0  0  0  0  0
    3.7320    1.9247    0.0000 H   0  0  0  0  0  0  0  0  0  0  0  0
    7.8003   -0.4115    0.0000 H   0  0  0  0  0  0  0  0  0  0  0  0
    7.2598   -1.3394    0.0000 H   0  0  0  0  0  0  0  0  0  0  0  0
    1.6900   -0.1583    0.0000 H   0  0  0  0  0  0  0  0  0  0  0  0
    1.4631   -1.0053    0.0000 H   0  0  0  0  0  0  0  0  0  0  0  0
    2.3100   -1.2322    0.0000 H   0  0  0  0  0  0  0  0  0  0  0  0
    2.3100    1.8417    0.0000 H   0  0  0  0  0  0  0  0  0  0  0  0
    1.4631    1.6147    0.0000 H   0  0  0  0  0  0  0  0  0  0  0  0
    1.6900    0.7678    0.0000 H   0  0  0  0  0  0  0  0  0  0  0  0
  1  2  1  0  0  0  0
  1 23  1  0  0  0  0
  1 24  1  0  0  0  0
  2  3  1  0  0  0  0
  2  4  1  0  0  0  0
  2 14  1  0  0  0  0
  3  5  1  0  0  0  0
  3 15  1  0  0  0  0
  3 16  1  0  0  0  0
  4  6  1  0  0  0  0
  4 17  1  0  0  0  0
  4 18  1  0  0  0  0
  5  7  1  0  0  0  0
  5 19  1  0  0  0  0
  5 20  1  0  0  0  0
  6  7  2  0  0  0  0
  6  8  1  0  0  0  0
  7  9  1  0  0  0  0
  8 10  2  0  0  0  0
  8 21  1  0  0  0  0
  9 11  2  0  0  0  0
  9 22  1  0  0  0  0
 10 11  1  0  0  0  0
 10 12  1  0  0  0  0
 11 13  1  0  0  0  0
 12 25  1  0  0  0  0
 12 26  1  0  0  0  0
 12 27  1  0  0  0  0
 13 28  1  0  0  0  0
 13 29  1  0  0  0  0
 13 30  1  0  0  0  0
M  END
> <PUBCHEM_COMPOUND_CID>
23844117

> <PUBCHEM_COMPOUND_CANONICALIZED>
1

> <PUBCHEM_CACTVS_COMPLEXITY>
178

> <PUBCHEM_CACTVS_HBOND_ACCEPTOR>
1

> <PUBCHEM_CACTVS_HBOND_DONOR>
1

> <PUBCHEM_CACTVS_ROTATABLE_BOND>
0

> <PUBCHEM_CACTVS_SUBSKEYS>
AAADceByAAAAAAAAAAAAAAAAAAAAAAAAAAAwYAAAAAAAAADBAAAAHAAQAAAADCjBGAQyAIBAAACAAiBCAAACAAAgAAAAiIAAAIgIICKAkRGAIAAgkAAIiAcQgMAOwAACAAAQAACQAASAACAAAAAAAAAAAA==

> <PUBCHEM_IUPAC_OPENEYE_NAME>
6,7-dimethyltetralin-2-amine

> <PUBCHEM_IUPAC_CAS_NAME>
6,7-dimethyl-1,2,3,4-tetrahydronaphthalen-2-amine

> <PUBCHEM_IUPAC_NAME>
6,7-dimethyl-1,2,3,4-tetrahydronaphthalen-2-amine

> <PUBCHEM_IUPAC_SYSTEMATIC_NAME>
6,7-dimethyl-1,2,3,4-tetrahydronaphthalen-2-amine

> <PUBCHEM_IUPAC_TRADITIONAL_NAME>
(6,7-dimethyltetralin-2-yl)amine

> <PUBCHEM_IUPAC_INCHI>
InChI=1S/C12H17N/c1-8-5-10-3-4-12(13)7-11(10)6-9(8)2/h5-6,12H,3-4,7,13H2,1-2H3

> <PUBCHEM_IUPAC_INCHIKEY>
UJCKJEXZFPZLSZ-UHFFFAOYSA-N

> <PUBCHEM_XLOGP3>
2.8

> <PUBCHEM_EXACT_MASS>
175.1361

> <PUBCHEM_MOLECULAR_FORMULA>
C12H17N

> <PUBCHEM_MOLECULAR_WEIGHT>
175.27008

> <PUBCHEM_OPENEYE_CAN_SMILES>
CC1=C(C=C2CC(CCC2=C1)N)C

> <PUBCHEM_OPENEYE_ISO_SMILES>
CC1=C(C=C2CC(CCC2=C1)N)C

> <PUBCHEM_CACTVS_TPSA>
26

> <PUBCHEM_MONOISOTOPIC_WEIGHT>
175.1361

> <PUBCHEM_TOTAL_CHARGE>
0

> <PUBCHEM_HEAVY_ATOM_COUNT>
13

> <PUBCHEM_ATOM_DEF_STEREO_COUNT>
0

> <PUBCHEM_ATOM_UDEF_STEREO_COUNT>
1

> <PUBCHEM_BOND_DEF_STEREO_COUNT>
0

> <PUBCHEM_BOND_UDEF_STEREO_COUNT>
0

> <PUBCHEM_ISOTOPIC_ATOM_COUNT>
0

> <PUBCHEM_COMPONENT_COUNT>
1

> <PUBCHEM_CACTVS_TAUTO_COUNT>
1

> <PUBCHEM_COORDINATE_TYPE>
1
5
255

> <PUBCHEM_BONDANNOTATIONS>
2  1  3
10  11  8
6  7  8
6  8  8
7  9  8
8  10  8
9  11  8

$$$$
