62198542
  -OEChem-10231221312D

 42 43  0     1  0  0  0  0  0999 V2000
    6.3301   -0.7073    0.0000 N   0  0  0  0  0  0  0  0  0  0  0  0
    7.1962   -0.2073    0.0000 C   0  0  3  0  0  0  0  0  0  0  0  0
    7.1962    0.7927    0.0000 C   0  0  0  0  0  0  0  0  0  0  0  0
    8.0622   -0.7073    0.0000 C   0  0  0  0  0  0  0  0  0  0  0  0
    5.4641   -0.2073    0.0000 C   0  0  3  0  0  0  0  0  0  0  0  0
    8.0622    1.2927    0.0000 C   0  0  0  0  0  0  0  0  0  0  0  0
    8.9282   -0.2073    0.0000 C   0  0  0  0  0  0  0  0  0  0  0  0
    8.9282    0.7927    0.0000 C   0  0  0  0  0  0  0  0  0  0  0  0
    4.5981   -0.7073    0.0000 C   0  0  0  0  0  0  0  0  0  0  0  0
    3.7320   -0.2073    0.0000 C   0  0  0  0  0  0  0  0  0  0  0  0
    5.4641    0.7927    0.0000 C   0  0  0  0  0  0  0  0  0  0  0  0
    9.8222   -0.7420    0.0000 C   0  0  0  0  0  0  0  0  0  0  0  0
    9.8222    1.3273    0.0000 C   0  0  0  0  0  0  0  0  0  0  0  0
    2.8660   -0.7073    0.0000 C   0  0  0  0  0  0  0  0  0  0  0  0
   10.7282   -0.2281    0.0000 C   0  0  0  0  0  0  0  0  0  0  0  0
   10.7282    0.8135    0.0000 C   0  0  0  0  0  0  0  0  0  0  0  0
    2.0000   -0.2073    0.0000 C   0  0  0  0  0  0  0  0  0  0  0  0
    6.6592    0.1027    0.0000 H   0  0  0  0  0  0  0  0  0  0  0  0
    6.9841    1.3753    0.0000 H   0  0  0  0  0  0  0  0  0  0  0  0
    6.5856    0.6850    0.0000 H   0  0  0  0  0  0  0  0  0  0  0  0
    7.6636   -1.1823    0.0000 H   0  0  0  0  0  0  0  0  0  0  0  0
    8.4607   -1.1823    0.0000 H   0  0  0  0  0  0  0  0  0  0  0  0
    5.4641   -0.8273    0.0000 H   0  0  0  0  0  0  0  0  0  0  0  0
    8.4607    1.7676    0.0000 H   0  0  0  0  0  0  0  0  0  0  0  0
    7.6636    1.7676    0.0000 H   0  0  0  0  0  0  0  0  0  0  0  0
    6.3301   -1.3273    0.0000 H   0  0  0  0  0  0  0  0  0  0  0  0
    4.1996   -1.1823    0.0000 H   0  0  0  0  0  0  0  0  0  0  0  0
    4.9966   -1.1823    0.0000 H   0  0  0  0  0  0  0  0  0  0  0  0
    4.1306    0.2676    0.0000 H   0  0  0  0  0  0  0  0  0  0  0  0
    3.3335    0.2676    0.0000 H   0  0  0  0  0  0  0  0  0  0  0  0
    6.0841    0.7927    0.0000 H   0  0  0  0  0  0  0  0  0  0  0  0
    5.4641    1.4127    0.0000 H   0  0  0  0  0  0  0  0  0  0  0  0
    4.8441    0.7927    0.0000 H   0  0  0  0  0  0  0  0  0  0  0  0
    9.8150   -1.3620    0.0000 H   0  0  0  0  0  0  0  0  0  0  0  0
    9.8150    1.9473    0.0000 H   0  0  0  0  0  0  0  0  0  0  0  0
    2.4675   -1.1823    0.0000 H   0  0  0  0  0  0  0  0  0  0  0  0
    3.2646   -1.1823    0.0000 H   0  0  0  0  0  0  0  0  0  0  0  0
   11.2639   -0.5402    0.0000 H   0  0  0  0  0  0  0  0  0  0  0  0
   11.2639    1.1256    0.0000 H   0  0  0  0  0  0  0  0  0  0  0  0
    2.3100    0.3296    0.0000 H   0  0  0  0  0  0  0  0  0  0  0  0
    1.4631    0.1027    0.0000 H   0  0  0  0  0  0  0  0  0  0  0  0
    1.6900   -0.7443    0.0000 H   0  0  0  0  0  0  0  0  0  0  0  0
  1  2  1  0  0  0  0
  1  5  1  0  0  0  0
  1 26  1  0  0  0  0
  2  3  1  0  0  0  0
  2  4  1  0  0  0  0
  2 18  1  0  0  0  0
  3  6  1  0  0  0  0
  3 19  1  0  0  0  0
  3 20  1  0  0  0  0
  4  7  1  0  0  0  0
  4 21  1  0  0  0  0
  4 22  1  0  0  0  0
  5  9  1  0  0  0  0
  5 11  1  0  0  0  0
  5 23  1  0  0  0  0
  6  8  1  0  0  0  0
  6 24  1  0  0  0  0
  6 25  1  0  0  0  0
  7  8  1  0  0  0  0
  7 12  2  0  0  0  0
  8 13  2  0  0  0  0
  9 10  1  0  0  0  0
  9 27  1  0  0  0  0
  9 28  1  0  0  0  0
 10 14  1  0  0  0  0
 10 29  1  0  0  0  0
 10 30  1  0  0  0  0
 11 31  1  0  0  0  0
 11 32  1  0  0  0  0
 11 33  1  0  0  0  0
 12 15  1  0  0  0  0
 12 34  1  0  0  0  0
 13 16  1  0  0  0  0
 13 35  1  0  0  0  0
 14 17  1  0  0  0  0
 14 36  1  0  0  0  0
 14 37  1  0  0  0  0
 15 16  2  0  0  0  0
 15 38  1  0  0  0  0
 16 39  1  0  0  0  0
 17 40  1  0  0  0  0
 17 41  1  0  0  0  0
 17 42  1  0  0  0  0
M  END
> <PUBCHEM_COMPOUND_CID>
62198542

> <PUBCHEM_COMPOUND_CANONICALIZED>
1

> <PUBCHEM_CACTVS_COMPLEXITY>
214

> <PUBCHEM_CACTVS_HBOND_ACCEPTOR>
1

> <PUBCHEM_CACTVS_HBOND_DONOR>
1

> <PUBCHEM_CACTVS_ROTATABLE_BOND>
5

> <PUBCHEM_CACTVS_SUBSKEYS>
AAADceB6AAAAAAAAAAAAAAAAAAAAAAAAAAAwYAAAAAAAAADBAAAAHAAQAAAADCjBGAQyAILAAACAAiBCAAACAAAgAAAIiIAIAIgIICKAkRGEIAAgkACIiAcQgIAOgAAAAAAQAAAQAACAACAAAAAAAAAAAA==

> <PUBCHEM_IUPAC_OPENEYE_NAME>
N-(1-methylpentyl)tetralin-2-amine

> <PUBCHEM_IUPAC_CAS_NAME>
N-hexan-2-yl-1,2,3,4-tetrahydronaphthalen-2-amine

> <PUBCHEM_IUPAC_NAME>
N-hexan-2-yl-1,2,3,4-tetrahydronaphthalen-2-amine

> <PUBCHEM_IUPAC_SYSTEMATIC_NAME>
N-hexan-2-yl-1,2,3,4-tetrahydronaphthalen-2-amine

> <PUBCHEM_IUPAC_TRADITIONAL_NAME>
1-methylpentyl(tetralin-2-yl)amine

> <PUBCHEM_IUPAC_INCHI>
InChI=1S/C16H25N/c1-3-4-7-13(2)17-16-11-10-14-8-5-6-9-15(14)12-16/h5-6,8-9,13,16-17H,3-4,7,10-12H2,1-2H3

> <PUBCHEM_IUPAC_INCHIKEY>
BMXLIKHRZJLLFT-UHFFFAOYSA-N

> <PUBCHEM_XLOGP3>
4.6

> <PUBCHEM_EXACT_MASS>
231.1987

> <PUBCHEM_MOLECULAR_FORMULA>
C16H25N

> <PUBCHEM_MOLECULAR_WEIGHT>
231.3764

> <PUBCHEM_OPENEYE_CAN_SMILES>
CCCCC(C)NC1CCC2=CC=CC=C2C1

> <PUBCHEM_OPENEYE_ISO_SMILES>
CCCCC(C)NC1CCC2=CC=CC=C2C1

> <PUBCHEM_CACTVS_TPSA>
12

> <PUBCHEM_MONOISOTOPIC_WEIGHT>
231.1987

> <PUBCHEM_TOTAL_CHARGE>
0

> <PUBCHEM_HEAVY_ATOM_COUNT>
17

> <PUBCHEM_ATOM_DEF_STEREO_COUNT>
0

> <PUBCHEM_ATOM_UDEF_STEREO_COUNT>
2

> <PUBCHEM_BOND_DEF_STEREO_COUNT>
0

> <PUBCHEM_BOND_UDEF_STEREO_COUNT>
0

> <PUBCHEM_ISOTOPIC_ATOM_COUNT>
0

> <PUBCHEM_COMPONENT_COUNT>
1

> <PUBCHEM_CACTVS_TAUTO_COUNT>
1

> <PUBCHEM_COORDINATE_TYPE>
1
5
255

> <PUBCHEM_BONDANNOTATIONS>
2  1  3
12  15  8
13  16  8
15  16  8
5  11  3
7  12  8
7  8  8
8  13  8

$$$$
62199502
  -OEChem-10231221312D

 34 34  0     1  0  0  0  0  0999 V2000
    2.0000   -1.7500    0.0000 Br  0  0  0  0  0  0  0  0  0  0  0  0
    2.8660   -0.2500    0.0000 O   0  0  0  0  0  0  0  0  0  0  0  0
    4.5981   -0.2500    0.0000 N   0  0  0  0  0  0  0  0  0  0  0  0
    4.5981    0.7500    0.0000 C   0  0  3  0  0  0  0  0  0  0  0  0
    5.4641    1.2500    0.0000 C   0  0  0  0  0  0  0  0  0  0  0  0
    5.4641    2.2500    0.0000 C   0  0  0  0  0  0  0  0  0  0  0  0
    6.3301    2.7500    0.0000 C   0  0  0  0  0  0  0  0  0  0  0  0
    3.7320    1.2500    0.0000 C   0  0  0  0  0  0  0  0  0  0  0  0
    6.3301    3.7500    0.0000 C   0  0  0  0  0  0  0  0  0  0  0  0
    3.7320   -0.7500    0.0000 C   0  0  0  0  0  0  0  0  0  0  0  0
    3.7320   -1.7500    0.0000 C   0  0  0  0  0  0  0  0  0  0  0  0
    2.8660   -2.2500    0.0000 C   0  0  0  0  0  0  0  0  0  0  0  0
    4.5981   -2.2500    0.0000 C   0  0  0  0  0  0  0  0  0  0  0  0
    2.8660   -3.2500    0.0000 C   0  0  0  0  0  0  0  0  0  0  0  0
    4.5981   -3.2500    0.0000 C   0  0  0  0  0  0  0  0  0  0  0  0
    3.7320   -3.7500    0.0000 C   0  0  0  0  0  0  0  0  0  0  0  0
    5.1350    0.4400    0.0000 H   0  0  0  0  0  0  0  0  0  0  0  0
    5.6762    0.6674    0.0000 H   0  0  0  0  0  0  0  0  0  0  0  0
    6.0747    1.3577    0.0000 H   0  0  0  0  0  0  0  0  0  0  0  0
    5.2520    2.8326    0.0000 H   0  0  0  0  0  0  0  0  0  0  0  0
    4.8535    2.1423    0.0000 H   0  0  0  0  0  0  0  0  0  0  0  0
    6.5422    2.1674    0.0000 H   0  0  0  0  0  0  0  0  0  0  0  0
    6.9407    2.8577    0.0000 H   0  0  0  0  0  0  0  0  0  0  0  0
    4.0420    1.7869    0.0000 H   0  0  0  0  0  0  0  0  0  0  0  0
    3.1951    1.5600    0.0000 H   0  0  0  0  0  0  0  0  0  0  0  0
    3.4220    0.7131    0.0000 H   0  0  0  0  0  0  0  0  0  0  0  0
    5.1350   -0.5600    0.0000 H   0  0  0  0  0  0  0  0  0  0  0  0
    6.9501    3.7500    0.0000 H   0  0  0  0  0  0  0  0  0  0  0  0
    6.3301    4.3700    0.0000 H   0  0  0  0  0  0  0  0  0  0  0  0
    5.7101    3.7500    0.0000 H   0  0  0  0  0  0  0  0  0  0  0  0
    5.1350   -1.9400    0.0000 H   0  0  0  0  0  0  0  0  0  0  0  0
    2.3291   -3.5600    0.0000 H   0  0  0  0  0  0  0  0  0  0  0  0
    5.1350   -3.5600    0.0000 H   0  0  0  0  0  0  0  0  0  0  0  0
    3.7320   -4.3700    0.0000 H   0  0  0  0  0  0  0  0  0  0  0  0
  1 12  1  0  0  0  0
  2 10  2  0  0  0  0
  3  4  1  0  0  0  0
  3 10  1  0  0  0  0
  3 27  1  0  0  0  0
  4  5  1  0  0  0  0
  4  8  1  0  0  0  0
  4 17  1  0  0  0  0
  5  6  1  0  0  0  0
  5 18  1  0  0  0  0
  5 19  1  0  0  0  0
  6  7  1  0  0  0  0
  6 20  1  0  0  0  0
  6 21  1  0  0  0  0
  7  9  1  0  0  0  0
  7 22  1  0  0  0  0
  7 23  1  0  0  0  0
  8 24  1  0  0  0  0
  8 25  1  0  0  0  0
  8 26  1  0  0  0  0
  9 28  1  0  0  0  0
  9 29  1  0  0  0  0
  9 30  1  0  0  0  0
 10 11  1  0  0  0  0
 11 12  1  0  0  0  0
 11 13  2  0  0  0  0
 12 14  2  0  0  0  0
 13 15  1  0  0  0  0
 13 31  1  0  0  0  0
 14 16  1  0  0  0  0
 14 32  1  0  0  0  0
 15 16  2  0  0  0  0
 15 33  1  0  0  0  0
 16 34  1  0  0  0  0
M  END
> <PUBCHEM_COMPOUND_CID>
62199502

> <PUBCHEM_COMPOUND_CANONICALIZED>
1

> <PUBCHEM_CACTVS_COMPLEXITY>
220

> <PUBCHEM_CACTVS_HBOND_ACCEPTOR>
1

> <PUBCHEM_CACTVS_HBOND_DONOR>
1

> <PUBCHEM_CACTVS_ROTATABLE_BOND>
5

> <PUBCHEM_CACTVS_SUBSKEYS>
AAADceByIAAAEAAAAAAAAAAAAAAAAAAAAAAwAAAAAAAAAAABAAAAHgBQAAABrCjBmAQyAILAAACIAiFSEACCAAAkAAQIiIEIBOgIIDKAlRGEIQhglgCIi5cYiACOAAAAAAAAgAAAAAAAAAEAAAAAAAAAAA==

> <PUBCHEM_IUPAC_OPENEYE_NAME>
2-bromo-N-(1-methylpentyl)benzamide

> <PUBCHEM_IUPAC_CAS_NAME>
2-bromo-N-hexan-2-ylbenzamide

> <PUBCHEM_IUPAC_NAME>
2-bromo-N-hexan-2-ylbenzamide

> <PUBCHEM_IUPAC_SYSTEMATIC_NAME>
2-bromanyl-N-hexan-2-yl-benzamide

> <PUBCHEM_IUPAC_TRADITIONAL_NAME>
2-bromo-N-(1-methylpentyl)benzamide

> <PUBCHEM_IUPAC_INCHI>
InChI=1S/C13H18BrNO/c1-3-4-7-10(2)15-13(16)11-8-5-6-9-12(11)14/h5-6,8-10H,3-4,7H2,1-2H3,(H,15,16)

> <PUBCHEM_IUPAC_INCHIKEY>
OUOUNSZPDSIGOA-UHFFFAOYSA-N

> <PUBCHEM_XLOGP3>
3.2

> <PUBCHEM_EXACT_MASS>
283.057176

> <PUBCHEM_MOLECULAR_FORMULA>
C13H18BrNO

> <PUBCHEM_MOLECULAR_WEIGHT>
284.19212

> <PUBCHEM_OPENEYE_CAN_SMILES>
CCCCC(C)NC(=O)C1=CC=CC=C1Br

> <PUBCHEM_OPENEYE_ISO_SMILES>
CCCCC(C)NC(=O)C1=CC=CC=C1Br

> <PUBCHEM_CACTVS_TPSA>
29.1

> <PUBCHEM_MONOISOTOPIC_WEIGHT>
283.057176

> <PUBCHEM_TOTAL_CHARGE>
0

> <PUBCHEM_HEAVY_ATOM_COUNT>
16

> <PUBCHEM_ATOM_DEF_STEREO_COUNT>
0

> <PUBCHEM_ATOM_UDEF_STEREO_COUNT>
1

> <PUBCHEM_BOND_DEF_STEREO_COUNT>
0

> <PUBCHEM_BOND_UDEF_STEREO_COUNT>
0

> <PUBCHEM_ISOTOPIC_ATOM_COUNT>
0

> <PUBCHEM_COMPONENT_COUNT>
1

> <PUBCHEM_CACTVS_TAUTO_COUNT>
2

> <PUBCHEM_COORDINATE_TYPE>
1
5
255

> <PUBCHEM_BONDANNOTATIONS>
11  12  8
11  13  8
12  14  8
13  15  8
14  16  8
15  16  8
4  8  3

$$$$
