16451354
  -OEChem-11301217192D

 38 40  0     0  0  0  0  0  0999 V2000
    5.4641   -3.2500    0.0000 Cl  0  0  0  0  0  0  0  0  0  0  0  0
    2.0000   -3.2500    0.0000 Cl  0  0  0  0  0  0  0  0  0  0  0  0
    5.4641   -0.2500    0.0000 O   0  0  0  0  0  0  0  0  0  0  0  0
    4.5981    1.2500    0.0000 N   0  0  0  0  0  0  0  0  0  0  0  0
    3.7320   -0.2500    0.0000 N   0  0  0  0  0  0  0  0  0  0  0  0
    5.4641    1.7500    0.0000 C   0  0  0  0  0  0  0  0  0  0  0  0
    3.7320    1.7500    0.0000 C   0  0  0  0  0  0  0  0  0  0  0  0
    4.5981    0.2500    0.0000 C   0  0  0  0  0  0  0  0  0  0  0  0
    6.3301    1.2500    0.0000 C   0  0  0  0  0  0  0  0  0  0  0  0
    3.7320    2.7500    0.0000 C   0  0  0  0  0  0  0  0  0  0  0  0
    5.4641    2.7500    0.0000 C   0  0  0  0  0  0  0  0  0  0  0  0
    2.8660    1.2500    0.0000 C   0  0  0  0  0  0  0  0  0  0  0  0
    3.7320   -1.2500    0.0000 C   0  0  0  0  0  0  0  0  0  0  0  0
    7.1962    1.7500    0.0000 C   0  0  0  0  0  0  0  0  0  0  0  0
    2.8660    3.2500    0.0000 C   0  0  0  0  0  0  0  0  0  0  0  0
    2.0000    1.7500    0.0000 C   0  0  0  0  0  0  0  0  0  0  0  0
    6.3301    3.2500    0.0000 C   0  0  0  0  0  0  0  0  0  0  0  0
    2.8660   -1.7500    0.0000 C   0  0  0  0  0  0  0  0  0  0  0  0
    4.5981   -1.7500    0.0000 C   0  0  0  0  0  0  0  0  0  0  0  0
    2.0000    2.7500    0.0000 C   0  0  0  0  0  0  0  0  0  0  0  0
    7.1962    2.7500    0.0000 C   0  0  0  0  0  0  0  0  0  0  0  0
    4.5981   -2.7500    0.0000 C   0  0  0  0  0  0  0  0  0  0  0  0
    2.8660   -2.7500    0.0000 C   0  0  0  0  0  0  0  0  0  0  0  0
    3.7320   -3.2500    0.0000 C   0  0  0  0  0  0  0  0  0  0  0  0
    6.3301    0.6300    0.0000 H   0  0  0  0  0  0  0  0  0  0  0  0
    4.2690    3.0600    0.0000 H   0  0  0  0  0  0  0  0  0  0  0  0
    4.9272    3.0600    0.0000 H   0  0  0  0  0  0  0  0  0  0  0  0
    2.8660    0.6300    0.0000 H   0  0  0  0  0  0  0  0  0  0  0  0
    3.1951    0.0600    0.0000 H   0  0  0  0  0  0  0  0  0  0  0  0
    7.7331    1.4400    0.0000 H   0  0  0  0  0  0  0  0  0  0  0  0
    2.8660    3.8700    0.0000 H   0  0  0  0  0  0  0  0  0  0  0  0
    6.3301    3.8700    0.0000 H   0  0  0  0  0  0  0  0  0  0  0  0
    1.4631    1.4400    0.0000 H   0  0  0  0  0  0  0  0  0  0  0  0
    2.3291   -1.4400    0.0000 H   0  0  0  0  0  0  0  0  0  0  0  0
    5.1350   -1.4400    0.0000 H   0  0  0  0  0  0  0  0  0  0  0  0
    7.7331    3.0600    0.0000 H   0  0  0  0  0  0  0  0  0  0  0  0
    1.4631    3.0600    0.0000 H   0  0  0  0  0  0  0  0  0  0  0  0
    3.7320   -3.8700    0.0000 H   0  0  0  0  0  0  0  0  0  0  0  0
  1 22  1  0  0  0  0
  2 23  1  0  0  0  0
  3  8  2  0  0  0  0
  4  6  1  0  0  0  0
  4  7  1  0  0  0  0
  4  8  1  0  0  0  0
  5  8  1  0  0  0  0
  5 13  1  0  0  0  0
  5 29  1  0  0  0  0
  6  9  2  0  0  0  0
  6 11  1  0  0  0  0
  7 10  2  0  0  0  0
  7 12  1  0  0  0  0
  9 14  1  0  0  0  0
  9 25  1  0  0  0  0
 10 15  1  0  0  0  0
 10 26  1  0  0  0  0
 11 17  2  0  0  0  0
 11 27  1  0  0  0  0
 12 16  2  0  0  0  0
 12 28  1  0  0  0  0
 13 18  2  0  0  0  0
 13 19  1  0  0  0  0
 14 21  2  0  0  0  0
 14 30  1  0  0  0  0
 15 20  2  0  0  0  0
 15 31  1  0  0  0  0
 16 20  1  0  0  0  0
 16 33  1  0  0  0  0
 17 21  1  0  0  0  0
 17 32  1  0  0  0  0
 18 23  1  0  0  0  0
 18 34  1  0  0  0  0
 19 22  2  0  0  0  0
 19 35  1  0  0  0  0
 20 37  1  0  0  0  0
 21 36  1  0  0  0  0
 22 24  1  0  0  0  0
 23 24  2  0  0  0  0
 24 38  1  0  0  0  0
M  END
> <PUBCHEM_COMPOUND_CID>
16451354

> <PUBCHEM_COMPOUND_CANONICALIZED>
1

> <PUBCHEM_CACTVS_COMPLEXITY>
380

> <PUBCHEM_CACTVS_HBOND_ACCEPTOR>
1

> <PUBCHEM_CACTVS_HBOND_DONOR>
1

> <PUBCHEM_CACTVS_ROTATABLE_BOND>
3

> <PUBCHEM_CACTVS_SUBSKEYS>
AAADccB7IAAGAAAAAAAAAAAAAAAAAAAAAAAwYMAAAAAAAAABUAAAHgIQAAAACAqBECAxwIPAAACIACRCUACCAAAhBwAIiAAAZoiIIGLBk5GEIAholALIyCcQAAAAAAAAAAKAAAAAAAAABQAAAAAAAAAAAA==

> <PUBCHEM_IUPAC_OPENEYE_NAME>
3-(3,5-dichlorophenyl)-1,1-diphenyl-urea

> <PUBCHEM_IUPAC_CAS_NAME>
3-(3,5-dichlorophenyl)-1,1-diphenylurea

> <PUBCHEM_IUPAC_NAME>
3-(3,5-dichlorophenyl)-1,1-diphenylurea

> <PUBCHEM_IUPAC_SYSTEMATIC_NAME>
3-[3,5-bis(chloranyl)phenyl]-1,1-diphenyl-urea

> <PUBCHEM_IUPAC_TRADITIONAL_NAME>
3-(3,5-dichlorophenyl)-1,1-diphenyl-urea

> <PUBCHEM_IUPAC_INCHI>
InChI=1S/C19H14Cl2N2O/c20-14-11-15(21)13-16(12-14)22-19(24)23(17-7-3-1-4-8-17)18-9-5-2-6-10-18/h1-13H,(H,22,24)

> <PUBCHEM_IUPAC_INCHIKEY>
WMTYQIZTMZVHPC-UHFFFAOYSA-N

> <PUBCHEM_XLOGP3>
4.5

> <PUBCHEM_EXACT_MASS>
356.048318

> <PUBCHEM_MOLECULAR_FORMULA>
C19H14Cl2N2O

> <PUBCHEM_MOLECULAR_WEIGHT>
357.23326

> <PUBCHEM_OPENEYE_CAN_SMILES>
C1=CC=C(C=C1)N(C2=CC=CC=C2)C(=O)NC3=CC(=CC(=C3)Cl)Cl

> <PUBCHEM_OPENEYE_ISO_SMILES>
C1=CC=C(C=C1)N(C2=CC=CC=C2)C(=O)NC3=CC(=CC(=C3)Cl)Cl

> <PUBCHEM_CACTVS_TPSA>
32.3

> <PUBCHEM_MONOISOTOPIC_WEIGHT>
356.048318

> <PUBCHEM_TOTAL_CHARGE>
0

> <PUBCHEM_HEAVY_ATOM_COUNT>
24

> <PUBCHEM_ATOM_DEF_STEREO_COUNT>
0

> <PUBCHEM_ATOM_UDEF_STEREO_COUNT>
0

> <PUBCHEM_BOND_DEF_STEREO_COUNT>
0

> <PUBCHEM_BOND_UDEF_STEREO_COUNT>
0

> <PUBCHEM_ISOTOPIC_ATOM_COUNT>
0

> <PUBCHEM_COMPONENT_COUNT>
1

> <PUBCHEM_CACTVS_TAUTO_COUNT>
2

> <PUBCHEM_COORDINATE_TYPE>
1
5
255

> <PUBCHEM_BONDANNOTATIONS>
10  15  8
11  17  8
12  16  8
13  18  8
13  19  8
14  21  8
15  20  8
16  20  8
17  21  8
18  23  8
19  22  8
22  24  8
23  24  8
6  11  8
6  9  8
7  10  8
7  12  8
9  14  8

$$$$
16463837
  -OEChem-11301217202D

 47 50  0     1  0  0  0  0  0999 V2000
    6.7619   -3.4283    0.0000 Cl  0  0  0  0  0  0  0  0  0  0  0  0
    4.4026    1.7351    0.0000 O   0  0  0  0  0  0  0  0  0  0  0  0
    6.7485    0.6433    0.0000 O   0  0  0  0  0  0  0  0  0  0  0  0
    6.7523    2.8188    0.0000 O   0  0  0  0  0  0  0  0  0  0  0  0
    3.7066    3.7043    0.0000 O   0  0  0  0  0  0  0  0  0  0  0  0
    4.6783   -0.0254    0.0000 N   0  0  0  0  0  0  0  0  0  0  0  0
    4.6783   -1.6349    0.0000 N   0  0  0  0  0  0  0  0  0  0  0  0
    6.2619   -0.8302    0.0000 N   0  0  0  0  0  0  0  0  0  0  0  0
    2.8660    0.1698    0.0000 N   0  0  0  0  0  0  0  0  0  0  0  0
    2.0000   -1.3302    0.0000 N   0  0  0  0  0  0  0  0  0  0  0  0
    6.7619   -1.6962    0.0000 N   0  0  0  0  0  0  0  0  0  0  0  0
    2.8660   -2.8302    0.0000 N   0  0  0  0  0  0  0  0  0  0  0  0
    5.9405    1.2324    0.0000 C   0  0  1  0  0  0  0  0  0  0  0  0
    4.9889    0.9251    0.0000 C   0  0  1  0  0  0  0  0  0  0  0  0
    5.9422    2.2324    0.0000 C   0  0  1  0  0  0  0  0  0  0  0  0
    4.9917    2.5431    0.0000 C   0  0  1  0  0  0  0  0  0  0  0  0
    4.6844    3.4947    0.0000 C   0  0  0  0  0  0  0  0  0  0  0  0
    3.7320   -0.3302    0.0000 C   0  0  0  0  0  0  0  0  0  0  0  0
    5.2619   -0.8302    0.0000 C   0  0  0  0  0  0  0  0  0  0  0  0
    3.7320   -1.3302    0.0000 C   0  0  0  0  0  0  0  0  0  0  0  0
    2.8660   -1.8302    0.0000 C   0  0  0  0  0  0  0  0  0  0  0  0
    2.0000   -0.3302    0.0000 C   0  0  0  0  0  0  0  0  0  0  0  0
    7.7619   -1.6962    0.0000 C   0  0  0  0  0  0  0  0  0  0  0  0
    8.2619   -2.5622    0.0000 C   0  0  0  0  0  0  0  0  0  0  0  0
    7.7619   -3.4283    0.0000 C   0  0  0  0  0  0  0  0  0  0  0  0
    9.2619   -2.5622    0.0000 C   0  0  0  0  0  0  0  0  0  0  0  0
    8.2619   -4.2943    0.0000 C   0  0  0  0  0  0  0  0  0  0  0  0
    9.7619   -3.4283    0.0000 C   0  0  0  0  0  0  0  0  0  0  0  0
    9.2619   -4.2943    0.0000 C   0  0  0  0  0  0  0  0  0  0  0  0
    5.8425    0.6202    0.0000 H   0  0  0  0  0  0  0  0  0  0  0  0
    5.4266    0.4859    0.0000 H   0  0  0  0  0  0  0  0  0  0  0  0
    6.4942    1.9500    0.0000 H   0  0  0  0  0  0  0  0  0  0  0  0
    4.3795    2.6412    0.0000 H   0  0  0  0  0  0  0  0  0  0  0  0
    5.2985    3.5799    0.0000 H   0  0  0  0  0  0  0  0  0  0  0  0
    4.7071    4.1143    0.0000 H   0  0  0  0  0  0  0  0  0  0  0  0
    7.3154    0.8945    0.0000 H   0  0  0  0  0  0  0  0  0  0  0  0
    6.6886    3.4355    0.0000 H   0  0  0  0  0  0  0  0  0  0  0  0
    3.5160    4.2943    0.0000 H   0  0  0  0  0  0  0  0  0  0  0  0
    6.5719   -0.2932    0.0000 H   0  0  0  0  0  0  0  0  0  0  0  0
    1.4631   -0.0202    0.0000 H   0  0  0  0  0  0  0  0  0  0  0  0
    2.3291   -3.1402    0.0000 H   0  0  0  0  0  0  0  0  0  0  0  0
    3.4030   -3.1402    0.0000 H   0  0  0  0  0  0  0  0  0  0  0  0
    8.0719   -1.1593    0.0000 H   0  0  0  0  0  0  0  0  0  0  0  0
    9.5719   -2.0253    0.0000 H   0  0  0  0  0  0  0  0  0  0  0  0
    7.9519   -4.8312    0.0000 H   0  0  0  0  0  0  0  0  0  0  0  0
   10.3819   -3.4283    0.0000 H   0  0  0  0  0  0  0  0  0  0  0  0
    9.5719   -4.8312    0.0000 H   0  0  0  0  0  0  0  0  0  0  0  0
  1 25  1  0  0  0  0
  2 14  1  0  0  0  0
  2 16  1  0  0  0  0
 13  3  1  1  0  0  0
  3 36  1  0  0  0  0
 15  4  1  1  0  0  0
  4 37  1  0  0  0  0
  5 17  1  0  0  0  0
  5 38  1  0  0  0  0
 14  6  1  6  0  0  0
  6 18  1  0  0  0  0
  6 19  1  0  0  0  0
  7 19  2  0  0  0  0
  7 20  1  0  0  0  0
  8 11  1  0  0  0  0
  8 19  1  0  0  0  0
  8 39  1  0  0  0  0
  9 18  2  0  0  0  0
  9 22  1  0  0  0  0
 10 21  1  0  0  0  0
 10 22  2  0  0  0  0
 11 23  2  0  0  0  0
 12 21  1  0  0  0  0
 12 41  1  0  0  0  0
 12 42  1  0  0  0  0
 13 14  1  0  0  0  0
 13 15  1  0  0  0  0
 13 30  1  0  0  0  0
 14 31  1  0  0  0  0
 15 16  1  0  0  0  0
 15 32  1  0  0  0  0
 16 17  1  6  0  0  0
 16 33  1  0  0  0  0
 17 34  1  0  0  0  0
 17 35  1  0  0  0  0
 18 20  1  0  0  0  0
 20 21  2  0  0  0  0
 22 40  1  0  0  0  0
 23 24  1  0  0  0  0
 23 43  1  0  0  0  0
 24 25  1  0  0  0  0
 24 26  2  0  0  0  0
 25 27  2  0  0  0  0
 26 28  1  0  0  0  0
 26 44  1  0  0  0  0
 27 29  1  0  0  0  0
 27 45  1  0  0  0  0
 28 29  2  0  0  0  0
 28 46  1  0  0  0  0
 29 47  1  0  0  0  0
M  END
> <PUBCHEM_COMPOUND_CID>
16463837

> <PUBCHEM_COMPOUND_CANONICALIZED>
1

> <PUBCHEM_CACTVS_COMPLEXITY>
590

> <PUBCHEM_CACTVS_HBOND_ACCEPTOR>
10

> <PUBCHEM_CACTVS_HBOND_DONOR>
5

> <PUBCHEM_CACTVS_ROTATABLE_BOND>
5

> <PUBCHEM_CACTVS_SUBSKEYS>
AAADceB7uAAEAAAAAAAAAAAAAAAAAWJAAAA8QAAAAAAAAFgB/AAAHgIYCAAADB7hnyY18L9uFgCgAzZjZACSgC0xFaAN2CAoVpiLeKLB21CeZAgviALbiCfwsAIOAAAAAAABAAAAAAAAAAIAAAAAAAAAAA==

> <PUBCHEM_IUPAC_OPENEYE_NAME>
(2R,3R,4S,5R)-2-[6-amino-8-[(2E)-2-[(2-chlorophenyl)methylene]hydrazino]purin-9-yl]-5-(hydroxymethyl)tetrahydrofuran-3,4-diol

> <PUBCHEM_IUPAC_CAS_NAME>
(2R,3R,4S,5R)-2-[6-amino-8-[(2E)-2-[(2-chlorophenyl)methylidene]hydrazinyl]-9-purinyl]-5-(hydroxymethyl)oxolane-3,4-diol

> <PUBCHEM_IUPAC_NAME>
(2R,3R,4S,5R)-2-[6-amino-8-[(2E)-2-[(2-chlorophenyl)methylidene]hydrazinyl]purin-9-yl]-5-(hydroxymethyl)oxolane-3,4-diol

> <PUBCHEM_IUPAC_SYSTEMATIC_NAME>
(2R,3R,4S,5R)-2-[6-azanyl-8-[(2E)-2-[(2-chlorophenyl)methylidene]hydrazinyl]purin-9-yl]-5-(hydroxymethyl)oxolane-3,4-diol

> <PUBCHEM_IUPAC_TRADITIONAL_NAME>
(2R,3R,4S,5R)-2-[6-amino-8-[(N'E)-N'-(2-chlorobenzylidene)hydrazino]purin-9-yl]-5-methylol-tetrahydrofuran-3,4-diol

> <PUBCHEM_IUPAC_INCHI>
InChI=1S/C17H18ClN7O4/c18-9-4-2-1-3-8(9)5-22-24-17-23-11-14(19)20-7-21-15(11)25(17)16-13(28)12(27)10(6-26)29-16/h1-5,7,10,12-13,16,26-28H,6H2,(H,23,24)(H2,19,20,21)/b22-5+/t10-,12-,13-,16-/m1/s1

> <PUBCHEM_IUPAC_INCHIKEY>
USIVRAOGSAJTAX-AMJCTQNPSA-N

> <PUBCHEM_XLOGP3>
1.5

> <PUBCHEM_EXACT_MASS>
419.11088

> <PUBCHEM_MOLECULAR_FORMULA>
C17H18ClN7O4

> <PUBCHEM_MOLECULAR_WEIGHT>
419.82232

> <PUBCHEM_OPENEYE_CAN_SMILES>
C1=CC=C(C(=C1)C=NNC2=NC3=C(N2C4C(C(C(O4)CO)O)O)N=CN=C3N)Cl

> <PUBCHEM_OPENEYE_ISO_SMILES>
C1=CC=C(C(=C1)/C=N/NC2=NC3=C(N2[C@H]4[C@@H]([C@@H]([C@H](O4)CO)O)O)N=CN=C3N)Cl

> <PUBCHEM_CACTVS_TPSA>
164

> <PUBCHEM_MONOISOTOPIC_WEIGHT>
419.11088

> <PUBCHEM_TOTAL_CHARGE>
0

> <PUBCHEM_HEAVY_ATOM_COUNT>
29

> <PUBCHEM_ATOM_DEF_STEREO_COUNT>
4

> <PUBCHEM_ATOM_UDEF_STEREO_COUNT>
0

> <PUBCHEM_BOND_DEF_STEREO_COUNT>
1

> <PUBCHEM_BOND_UDEF_STEREO_COUNT>
0

> <PUBCHEM_ISOTOPIC_ATOM_COUNT>
0

> <PUBCHEM_COMPONENT_COUNT>
1

> <PUBCHEM_CACTVS_TAUTO_COUNT>
6

> <PUBCHEM_COORDINATE_TYPE>
1
5
255

> <PUBCHEM_BONDANNOTATIONS>
10  21  8
10  22  8
16  17  6
18  20  8
20  21  8
24  25  8
24  26  8
25  27  8
26  28  8
27  29  8
28  29  8
13  3  5
15  4  5
14  6  6
6  18  8
6  19  8
7  19  8
7  20  8
9  18  8
9  22  8

$$$$
16471741
  -OEChem-11301217212D

 25 25  0     1  0  0  0  0  0999 V2000
    2.8660    2.0000    0.0000 Br  0  0  0  0  0  0  0  0  0  0  0  0
    4.5981    0.0000    0.0000 O   0  0  0  0  0  0  0  0  0  0  0  0
    2.8660    0.0000    0.0000 N   0  0  0  0  0  0  0  0  0  0  0  0
    3.7320    1.5000    0.0000 C   0  0  3  0  0  0  0  0  0  0  0  0
    4.5981    2.0000    0.0000 C   0  0  0  0  0  0  0  0  0  0  0  0
    3.7320    0.5000    0.0000 C   0  0  0  0  0  0  0  0  0  0  0  0
    4.5981    3.0000    0.0000 C   0  0  0  0  0  0  0  0  0  0  0  0
    2.8660   -1.0000    0.0000 C   0  0  0  0  0  0  0  0  0  0  0  0
    2.0000   -1.5000    0.0000 C   0  0  0  0  0  0  0  0  0  0  0  0
    3.7320   -1.5000    0.0000 C   0  0  0  0  0  0  0  0  0  0  0  0
    2.0000   -2.5000    0.0000 C   0  0  0  0  0  0  0  0  0  0  0  0
    3.7320   -2.5000    0.0000 C   0  0  0  0  0  0  0  0  0  0  0  0
    2.8660   -3.0000    0.0000 C   0  0  0  0  0  0  0  0  0  0  0  0
    3.7320    2.1200    0.0000 H   0  0  0  0  0  0  0  0  0  0  0  0
    4.8101    1.4174    0.0000 H   0  0  0  0  0  0  0  0  0  0  0  0
    5.2087    2.1077    0.0000 H   0  0  0  0  0  0  0  0  0  0  0  0
    5.2181    3.0000    0.0000 H   0  0  0  0  0  0  0  0  0  0  0  0
    4.5981    3.6200    0.0000 H   0  0  0  0  0  0  0  0  0  0  0  0
    3.9781    3.0000    0.0000 H   0  0  0  0  0  0  0  0  0  0  0  0
    2.3291    0.3100    0.0000 H   0  0  0  0  0  0  0  0  0  0  0  0
    1.4631   -1.1900    0.0000 H   0  0  0  0  0  0  0  0  0  0  0  0
    4.2690   -1.1900    0.0000 H   0  0  0  0  0  0  0  0  0  0  0  0
    1.4631   -2.8100    0.0000 H   0  0  0  0  0  0  0  0  0  0  0  0
    4.2690   -2.8100    0.0000 H   0  0  0  0  0  0  0  0  0  0  0  0
    2.8660   -3.6200    0.0000 H   0  0  0  0  0  0  0  0  0  0  0  0
  1  4  1  0  0  0  0
  2  6  2  0  0  0  0
  3  6  1  0  0  0  0
  3  8  1  0  0  0  0
  3 20  1  0  0  0  0
  4  5  1  0  0  0  0
  4  6  1  0  0  0  0
  4 14  1  0  0  0  0
  5  7  1  0  0  0  0
  5 15  1  0  0  0  0
  5 16  1  0  0  0  0
  7 17  1  0  0  0  0
  7 18  1  0  0  0  0
  7 19  1  0  0  0  0
  8  9  2  0  0  0  0
  8 10  1  0  0  0  0
  9 11  1  0  0  0  0
  9 21  1  0  0  0  0
 10 12  2  0  0  0  0
 10 22  1  0  0  0  0
 11 13  2  0  0  0  0
 11 23  1  0  0  0  0
 12 13  1  0  0  0  0
 12 24  1  0  0  0  0
 13 25  1  0  0  0  0
M  END
> <PUBCHEM_COMPOUND_CID>
16471741

> <PUBCHEM_COMPOUND_CANONICALIZED>
1

> <PUBCHEM_CACTVS_COMPLEXITY>
166

> <PUBCHEM_CACTVS_HBOND_ACCEPTOR>
1

> <PUBCHEM_CACTVS_HBOND_DONOR>
1

> <PUBCHEM_CACTVS_ROTATABLE_BOND>
3

> <PUBCHEM_CACTVS_SUBSKEYS>
AAADccByIAAAEAAAAAAAAAAAAAAAAAAAAAAwAAAAAAAAAAABAAAAHgBQAAAByAiBkAAywILAAACIACVSUACCAAAhAgAIiAEAZKgoIDLAkZGEIAhglADIyAcQAAAAAAAAAAAAAAAAAAAAAAAAAAAAAAAAAA==

> <PUBCHEM_IUPAC_OPENEYE_NAME>
2-bromo-N-phenyl-butanamide

> <PUBCHEM_IUPAC_CAS_NAME>
2-bromo-N-phenylbutanamide

> <PUBCHEM_IUPAC_NAME>
2-bromo-N-phenylbutanamide

> <PUBCHEM_IUPAC_SYSTEMATIC_NAME>
2-bromanyl-N-phenyl-butanamide

> <PUBCHEM_IUPAC_TRADITIONAL_NAME>
2-bromo-N-phenyl-butyramide

> <PUBCHEM_IUPAC_INCHI>
InChI=1S/C10H12BrNO/c1-2-9(11)10(13)12-8-6-4-3-5-7-8/h3-7,9H,2H2,1H3,(H,12,13)

> <PUBCHEM_IUPAC_INCHIKEY>
LPYHYCASMUNJLQ-UHFFFAOYSA-N

> <PUBCHEM_XLOGP3>
2.9

> <PUBCHEM_EXACT_MASS>
241.010226

> <PUBCHEM_MOLECULAR_FORMULA>
C10H12BrNO

> <PUBCHEM_MOLECULAR_WEIGHT>
242.11238

> <PUBCHEM_OPENEYE_CAN_SMILES>
CCC(C(=O)NC1=CC=CC=C1)Br

> <PUBCHEM_OPENEYE_ISO_SMILES>
CCC(C(=O)NC1=CC=CC=C1)Br

> <PUBCHEM_CACTVS_TPSA>
29.1

> <PUBCHEM_MONOISOTOPIC_WEIGHT>
241.010226

> <PUBCHEM_TOTAL_CHARGE>
0

> <PUBCHEM_HEAVY_ATOM_COUNT>
13

> <PUBCHEM_ATOM_DEF_STEREO_COUNT>
0

> <PUBCHEM_ATOM_UDEF_STEREO_COUNT>
1

> <PUBCHEM_BOND_DEF_STEREO_COUNT>
0

> <PUBCHEM_BOND_UDEF_STEREO_COUNT>
0

> <PUBCHEM_ISOTOPIC_ATOM_COUNT>
0

> <PUBCHEM_COMPONENT_COUNT>
1

> <PUBCHEM_CACTVS_TAUTO_COUNT>
3

> <PUBCHEM_COORDINATE_TYPE>
1
5
255

> <PUBCHEM_BONDANNOTATIONS>
4  1  3
10  12  8
11  13  8
12  13  8
8  10  8
8  9  8
9  11  8

$$$$
16472399
  -OEChem-11301217212D

 45 48  0     0  0  0  0  0  0999 V2000
    6.3301    0.9827    0.0000 O   0  0  0  0  0  0  0  0  0  0  0  0
    8.0622    0.9827    0.0000 N   0  0  0  0  0  0  0  0  0  0  0  0
    8.9282    2.4827    0.0000 C   0  0  0  0  0  0  0  0  0  0  0  0
    8.0622    1.9827    0.0000 C   0  0  0  0  0  0  0  0  0  0  0  0
    7.1962   -0.5173    0.0000 C   0  0  0  0  0  0  0  0  0  0  0  0
    6.3301   -1.0173    0.0000 C   0  0  0  0  0  0  0  0  0  0  0  0
    8.9282    3.4827    0.0000 C   0  0  0  0  0  0  0  0  0  0  0  0
    4.5981   -2.0173    0.0000 C   0  0  0  0  0  0  0  0  0  0  0  0
    7.1962    0.4827    0.0000 C   0  0  0  0  0  0  0  0  0  0  0  0
    5.4641   -0.5173    0.0000 C   0  0  0  0  0  0  0  0  0  0  0  0
    6.3301   -2.0173    0.0000 C   0  0  0  0  0  0  0  0  0  0  0  0
    7.1962    2.4827    0.0000 C   0  0  0  0  0  0  0  0  0  0  0  0
    9.8222    1.9480    0.0000 C   0  0  0  0  0  0  0  0  0  0  0  0
    4.5981   -1.0173    0.0000 C   0  0  0  0  0  0  0  0  0  0  0  0
    5.4641   -2.5173    0.0000 C   0  0  0  0  0  0  0  0  0  0  0  0
    8.0622    3.9827    0.0000 C   0  0  0  0  0  0  0  0  0  0  0  0
    3.7320   -2.5173    0.0000 C   0  0  0  0  0  0  0  0  0  0  0  0
    9.8222    4.0173    0.0000 C   0  0  0  0  0  0  0  0  0  0  0  0
    7.1962    3.4827    0.0000 C   0  0  0  0  0  0  0  0  0  0  0  0
   10.7282    2.4618    0.0000 C   0  0  0  0  0  0  0  0  0  0  0  0
   10.7282    3.5035    0.0000 C   0  0  0  0  0  0  0  0  0  0  0  0
    2.8660   -2.0173    0.0000 C   0  0  0  0  0  0  0  0  0  0  0  0
    3.7320   -3.5173    0.0000 C   0  0  0  0  0  0  0  0  0  0  0  0
    2.0000   -2.5173    0.0000 C   0  0  0  0  0  0  0  0  0  0  0  0
    2.8660   -4.0173    0.0000 C   0  0  0  0  0  0  0  0  0  0  0  0
    2.0000   -3.5173    0.0000 C   0  0  0  0  0  0  0  0  0  0  0  0
    7.4082   -1.0999    0.0000 H   0  0  0  0  0  0  0  0  0  0  0  0
    7.8067   -0.4097    0.0000 H   0  0  0  0  0  0  0  0  0  0  0  0
    8.5991    0.6727    0.0000 H   0  0  0  0  0  0  0  0  0  0  0  0
    5.4641    0.1027    0.0000 H   0  0  0  0  0  0  0  0  0  0  0  0
    6.8671   -2.3273    0.0000 H   0  0  0  0  0  0  0  0  0  0  0  0
    6.6592    2.1727    0.0000 H   0  0  0  0  0  0  0  0  0  0  0  0
    9.8150    1.3280    0.0000 H   0  0  0  0  0  0  0  0  0  0  0  0
    4.0611   -0.7073    0.0000 H   0  0  0  0  0  0  0  0  0  0  0  0
    5.4641   -3.1373    0.0000 H   0  0  0  0  0  0  0  0  0  0  0  0
    8.0622    4.6027    0.0000 H   0  0  0  0  0  0  0  0  0  0  0  0
    9.8150    4.6373    0.0000 H   0  0  0  0  0  0  0  0  0  0  0  0
    6.6592    3.7927    0.0000 H   0  0  0  0  0  0  0  0  0  0  0  0
   11.2639    2.1498    0.0000 H   0  0  0  0  0  0  0  0  0  0  0  0
   11.2639    3.8156    0.0000 H   0  0  0  0  0  0  0  0  0  0  0  0
    2.8660   -1.3973    0.0000 H   0  0  0  0  0  0  0  0  0  0  0  0
    4.2690   -3.8273    0.0000 H   0  0  0  0  0  0  0  0  0  0  0  0
    1.4631   -2.2073    0.0000 H   0  0  0  0  0  0  0  0  0  0  0  0
    2.8660   -4.6373    0.0000 H   0  0  0  0  0  0  0  0  0  0  0  0
    1.4631   -3.8273    0.0000 H   0  0  0  0  0  0  0  0  0  0  0  0
  1  9  2  0  0  0  0
  2  4  1  0  0  0  0
  2  9  1  0  0  0  0
  2 29  1  0  0  0  0
  3  4  1  0  0  0  0
  3  7  1  0  0  0  0
  3 13  2  0  0  0  0
  4 12  2  0  0  0  0
  5  6  1  0  0  0  0
  5  9  1  0  0  0  0
  5 27  1  0  0  0  0
  5 28  1  0  0  0  0
  6 10  2  0  0  0  0
  6 11  1  0  0  0  0
  7 16  1  0  0  0  0
  7 18  2  0  0  0  0
  8 14  2  0  0  0  0
  8 15  1  0  0  0  0
  8 17  1  0  0  0  0
 10 14  1  0  0  0  0
 10 30  1  0  0  0  0
 11 15  2  0  0  0  0
 11 31  1  0  0  0  0
 12 19  1  0  0  0  0
 12 32  1  0  0  0  0
 13 20  1  0  0  0  0
 13 33  1  0  0  0  0
 14 34  1  0  0  0  0
 15 35  1  0  0  0  0
 16 19  2  0  0  0  0
 16 36  1  0  0  0  0
 17 22  2  0  0  0  0
 17 23  1  0  0  0  0
 18 21  1  0  0  0  0
 18 37  1  0  0  0  0
 19 38  1  0  0  0  0
 20 21  2  0  0  0  0
 20 39  1  0  0  0  0
 21 40  1  0  0  0  0
 22 24  1  0  0  0  0
 22 41  1  0  0  0  0
 23 25  2  0  0  0  0
 23 42  1  0  0  0  0
 24 26  2  0  0  0  0
 24 43  1  0  0  0  0
 25 26  1  0  0  0  0
 25 44  1  0  0  0  0
 26 45  1  0  0  0  0
M  END
> <PUBCHEM_COMPOUND_CID>
16472399

> <PUBCHEM_COMPOUND_CANONICALIZED>
1

> <PUBCHEM_CACTVS_COMPLEXITY>
447

> <PUBCHEM_CACTVS_HBOND_ACCEPTOR>
1

> <PUBCHEM_CACTVS_HBOND_DONOR>
1

> <PUBCHEM_CACTVS_ROTATABLE_BOND>
4

> <PUBCHEM_CACTVS_SUBSKEYS>
AAADceB6IAAAAAAAAAAAAAAAAAAAAAAAAAAwYMGAAAAAAADBVAAAHgAQAAAADAiBmAAwwMLAAACIAiVSUACCAAAhAgAIiAEAZIgIIDLAlZGEIAhglADIyAcYiMCOwAAAQAASAACAAACAACQAAAAAAAAAAA==

> <PUBCHEM_IUPAC_OPENEYE_NAME>
N-(1-naphthyl)-2-(4-phenylphenyl)acetamide

> <PUBCHEM_IUPAC_CAS_NAME>
N-(1-naphthalenyl)-2-(4-phenylphenyl)acetamide

> <PUBCHEM_IUPAC_NAME>
N-naphthalen-1-yl-2-(4-phenylphenyl)acetamide

> <PUBCHEM_IUPAC_SYSTEMATIC_NAME>
N-naphthalen-1-yl-2-(4-phenylphenyl)ethanamide

> <PUBCHEM_IUPAC_TRADITIONAL_NAME>
N-(1-naphthyl)-2-(4-phenylphenyl)acetamide

> <PUBCHEM_IUPAC_INCHI>
InChI=1S/C24H19NO/c26-24(25-23-12-6-10-21-9-4-5-11-22(21)23)17-18-13-15-20(16-14-18)19-7-2-1-3-8-19/h1-16H,17H2,(H,25,26)

> <PUBCHEM_IUPAC_INCHIKEY>
UKGFBMHAAIQJJS-UHFFFAOYSA-N

> <PUBCHEM_XLOGP3>
4.9

> <PUBCHEM_EXACT_MASS>
337.146664

> <PUBCHEM_MOLECULAR_FORMULA>
C24H19NO

> <PUBCHEM_MOLECULAR_WEIGHT>
337.41376

> <PUBCHEM_OPENEYE_CAN_SMILES>
C1=CC=C(C=C1)C2=CC=C(C=C2)CC(=O)NC3=CC=CC4=CC=CC=C43

> <PUBCHEM_OPENEYE_ISO_SMILES>
C1=CC=C(C=C1)C2=CC=C(C=C2)CC(=O)NC3=CC=CC4=CC=CC=C43

> <PUBCHEM_CACTVS_TPSA>
29.1

> <PUBCHEM_MONOISOTOPIC_WEIGHT>
337.146664

> <PUBCHEM_TOTAL_CHARGE>
0

> <PUBCHEM_HEAVY_ATOM_COUNT>
26

> <PUBCHEM_ATOM_DEF_STEREO_COUNT>
0

> <PUBCHEM_ATOM_UDEF_STEREO_COUNT>
0

> <PUBCHEM_BOND_DEF_STEREO_COUNT>
0

> <PUBCHEM_BOND_UDEF_STEREO_COUNT>
0

> <PUBCHEM_ISOTOPIC_ATOM_COUNT>
0

> <PUBCHEM_COMPONENT_COUNT>
1

> <PUBCHEM_CACTVS_TAUTO_COUNT>
3

> <PUBCHEM_COORDINATE_TYPE>
1
5
255

> <PUBCHEM_BONDANNOTATIONS>
10  14  8
11  15  8
12  19  8
13  20  8
16  19  8
17  22  8
17  23  8
18  21  8
20  21  8
22  24  8
23  25  8
24  26  8
25  26  8
3  13  8
3  4  8
3  7  8
4  12  8
6  10  8
6  11  8
7  16  8
7  18  8
8  14  8
8  15  8

$$$$
