27373970
  -OEChem-12041211322D

 30 30  0     0  0  0  0  0  0999 V2000
    2.8660   -2.5600    0.0000 O   0  0  0  0  0  0  0  0  0  0  0  0
    3.7320    1.9400    0.0000 N   0  3  0  0  0  0  0  0  0  0  0  0
    4.5981    3.4400    0.0000 N   0  0  0  0  0  0  0  0  0  0  0  0
    2.8660    3.4400    0.0000 N   0  0  0  0  0  0  0  0  0  0  0  0
    2.8660    0.4400    0.0000 C   0  0  0  0  0  0  0  0  0  0  0  0
    2.8660    1.4400    0.0000 C   0  0  0  0  0  0  0  0  0  0  0  0
    2.0000   -0.0600    0.0000 C   0  0  0  0  0  0  0  0  0  0  0  0
    3.7320   -0.0600    0.0000 C   0  0  0  0  0  0  0  0  0  0  0  0
    2.8660   -1.5600    0.0000 C   0  0  0  0  0  0  0  0  0  0  0  0
    2.0000   -1.0600    0.0000 C   0  0  0  0  0  0  0  0  0  0  0  0
    3.7320   -1.0600    0.0000 C   0  0  0  0  0  0  0  0  0  0  0  0
    2.0000   -3.0600    0.0000 C   0  0  0  0  0  0  0  0  0  0  0  0
    3.7320    2.9400    0.0000 C   0  0  0  0  0  0  0  0  0  0  0  0
    2.0000   -4.0600    0.0000 C   0  0  0  0  0  0  0  0  0  0  0  0
    2.6540    2.0226    0.0000 H   0  0  0  0  0  0  0  0  0  0  0  0
    2.2554    1.3323    0.0000 H   0  0  0  0  0  0  0  0  0  0  0  0
    1.4631    0.2500    0.0000 H   0  0  0  0  0  0  0  0  0  0  0  0
    4.2690    0.2500    0.0000 H   0  0  0  0  0  0  0  0  0  0  0  0
    1.4631   -1.3700    0.0000 H   0  0  0  0  0  0  0  0  0  0  0  0
    4.2690   -1.3700    0.0000 H   0  0  0  0  0  0  0  0  0  0  0  0
    4.2690    1.6300    0.0000 H   0  0  0  0  0  0  0  0  0  0  0  0
    1.7880   -2.4774    0.0000 H   0  0  0  0  0  0  0  0  0  0  0  0
    1.3894   -3.1677    0.0000 H   0  0  0  0  0  0  0  0  0  0  0  0
    1.3800   -4.0600    0.0000 H   0  0  0  0  0  0  0  0  0  0  0  0
    2.0000   -4.6800    0.0000 H   0  0  0  0  0  0  0  0  0  0  0  0
    2.6200   -4.0600    0.0000 H   0  0  0  0  0  0  0  0  0  0  0  0
    4.5981    4.0600    0.0000 H   0  0  0  0  0  0  0  0  0  0  0  0
    5.1350    3.1300    0.0000 H   0  0  0  0  0  0  0  0  0  0  0  0
    2.8660    4.0600    0.0000 H   0  0  0  0  0  0  0  0  0  0  0  0
    2.3291    3.1300    0.0000 H   0  0  0  0  0  0  0  0  0  0  0  0
  1  9  1  0  0  0  0
  1 12  1  0  0  0  0
  2  6  1  0  0  0  0
  2 13  2  0  0  0  0
  2 21  1  0  0  0  0
  3 13  1  0  0  0  0
  3 27  1  0  0  0  0
  3 28  1  0  0  0  0
  4 13  1  0  0  0  0
  4 29  1  0  0  0  0
  4 30  1  0  0  0  0
  5  6  1  0  0  0  0
  5  7  2  0  0  0  0
  5  8  1  0  0  0  0
  6 15  1  0  0  0  0
  6 16  1  0  0  0  0
  7 10  1  0  0  0  0
  7 17  1  0  0  0  0
  8 11  2  0  0  0  0
  8 18  1  0  0  0  0
  9 10  2  0  0  0  0
  9 11  1  0  0  0  0
 10 19  1  0  0  0  0
 11 20  1  0  0  0  0
 12 14  1  0  0  0  0
 12 22  1  0  0  0  0
 12 23  1  0  0  0  0
 14 24  1  0  0  0  0
 14 25  1  0  0  0  0
 14 26  1  0  0  0  0
M  CHG  1   2   1
M  END
> <PUBCHEM_COMPOUND_CID>
27373970

> <PUBCHEM_COMPOUND_CANONICALIZED>
1

> <PUBCHEM_CACTVS_COMPLEXITY>
182

> <PUBCHEM_CACTVS_HBOND_ACCEPTOR>
1

> <PUBCHEM_CACTVS_HBOND_DONOR>
3

> <PUBCHEM_CACTVS_ROTATABLE_BOND>
4

> <PUBCHEM_CACTVS_SUBSKEYS>
AAADceBzIAAAAAAAAAAAAAAAAAAAAAAAAAAwAAAAAAAAAAABAAAAHgAQAAAADAThmAYzBoLABACgAiBCJACCCAGgIAAIiIAGDIgMJiKEsRuCOCDkwBEIqAeQ0AAOIAAAAAAAAABAAAAAAAAAAAAAAAAAAA==

> <PUBCHEM_IUPAC_OPENEYE_NAME>
diaminomethylene-[(4-ethoxyphenyl)methyl]ammonium

> <PUBCHEM_IUPAC_CAS_NAME>
diaminomethylidene-[(4-ethoxyphenyl)methyl]ammonium

> <PUBCHEM_IUPAC_NAME>
diaminomethylidene-[(4-ethoxyphenyl)methyl]azanium

> <PUBCHEM_IUPAC_SYSTEMATIC_NAME>
bis(azanyl)methylidene-[(4-ethoxyphenyl)methyl]azanium

> <PUBCHEM_IUPAC_TRADITIONAL_NAME>
diaminomethylene-(4-ethoxybenzyl)ammonium

> <PUBCHEM_IUPAC_INCHI>
InChI=1S/C10H15N3O/c1-2-14-9-5-3-8(4-6-9)7-13-10(11)12/h3-6H,2,7H2,1H3,(H4,11,12,13)/p+1

> <PUBCHEM_IUPAC_INCHIKEY>
LYCBVMIUBWLQFV-UHFFFAOYSA-O

> <PUBCHEM_XLOGP3>
0.9

> <PUBCHEM_EXACT_MASS>
194.129337

> <PUBCHEM_MOLECULAR_FORMULA>
C10H16N3O+

> <PUBCHEM_MOLECULAR_WEIGHT>
194.25354

> <PUBCHEM_OPENEYE_CAN_SMILES>
CCOC1=CC=C(C=C1)C[NH+]=C(N)N

> <PUBCHEM_OPENEYE_ISO_SMILES>
CCOC1=CC=C(C=C1)C[NH+]=C(N)N

> <PUBCHEM_CACTVS_TPSA>
75.2

> <PUBCHEM_MONOISOTOPIC_WEIGHT>
194.129337

> <PUBCHEM_TOTAL_CHARGE>
1

> <PUBCHEM_HEAVY_ATOM_COUNT>
14

> <PUBCHEM_ATOM_DEF_STEREO_COUNT>
0

> <PUBCHEM_ATOM_UDEF_STEREO_COUNT>
0

> <PUBCHEM_BOND_DEF_STEREO_COUNT>
0

> <PUBCHEM_BOND_UDEF_STEREO_COUNT>
0

> <PUBCHEM_ISOTOPIC_ATOM_COUNT>
0

> <PUBCHEM_COMPONENT_COUNT>
1

> <PUBCHEM_CACTVS_TAUTO_COUNT>
2

> <PUBCHEM_COORDINATE_TYPE>
1
5
255

> <PUBCHEM_BONDANNOTATIONS>
5  7  8
5  8  8
7  10  8
8  11  8
9  10  8
9  11  8

$$$$
27374119
  -OEChem-12041211322D

 31 32  0     0  0  0  0  0  0999 V2000
    3.4860   -0.2073    0.0000 S   0  0  0  0  0  0  0  0  0  0  0  0
    2.6200   -2.7073    0.0000 N   0  3  0  0  0  0  0  0  0  0  0  0
    4.3520    1.2927    0.0000 C   0  0  0  0  0  0  0  0  0  0  0  0
    5.2181    1.7927    0.0000 C   0  0  0  0  0  0  0  0  0  0  0  0
    5.2181    2.7927    0.0000 C   0  0  0  0  0  0  0  0  0  0  0  0
    4.3520    0.2927    0.0000 C   0  0  0  0  0  0  0  0  0  0  0  0
    3.4860    1.7927    0.0000 C   0  0  0  0  0  0  0  0  0  0  0  0
    3.4860   -1.2073    0.0000 C   0  0  0  0  0  0  0  0  0  0  0  0
    6.1120    1.2580    0.0000 C   0  0  0  0  0  0  0  0  0  0  0  0
    4.3520    3.2927    0.0000 C   0  0  0  0  0  0  0  0  0  0  0  0
    2.6200   -1.7073    0.0000 C   0  0  0  0  0  0  0  0  0  0  0  0
    3.4860    2.7927    0.0000 C   0  0  0  0  0  0  0  0  0  0  0  0
    6.1120    3.3273    0.0000 C   0  0  0  0  0  0  0  0  0  0  0  0
    7.0181    1.7718    0.0000 C   0  0  0  0  0  0  0  0  0  0  0  0
    7.0181    2.8135    0.0000 C   0  0  0  0  0  0  0  0  0  0  0  0
    4.5641   -0.2899    0.0000 H   0  0  0  0  0  0  0  0  0  0  0  0
    4.9626    0.4003    0.0000 H   0  0  0  0  0  0  0  0  0  0  0  0
    2.9491    1.4827    0.0000 H   0  0  0  0  0  0  0  0  0  0  0  0
    3.6981   -1.7899    0.0000 H   0  0  0  0  0  0  0  0  0  0  0  0
    4.0966   -1.0997    0.0000 H   0  0  0  0  0  0  0  0  0  0  0  0
    6.1048    0.6380    0.0000 H   0  0  0  0  0  0  0  0  0  0  0  0
    4.3520    3.9127    0.0000 H   0  0  0  0  0  0  0  0  0  0  0  0
    2.4080   -1.1247    0.0000 H   0  0  0  0  0  0  0  0  0  0  0  0
    2.0094   -1.8150    0.0000 H   0  0  0  0  0  0  0  0  0  0  0  0
    2.9491    3.1027    0.0000 H   0  0  0  0  0  0  0  0  0  0  0  0
    6.1048    3.9473    0.0000 H   0  0  0  0  0  0  0  0  0  0  0  0
    7.5538    1.4598    0.0000 H   0  0  0  0  0  0  0  0  0  0  0  0
    7.5538    3.1256    0.0000 H   0  0  0  0  0  0  0  0  0  0  0  0
    2.6200   -3.3273    0.0000 H   0  0  0  0  0  0  0  0  0  0  0  0
    2.0000   -2.7073    0.0000 H   0  0  0  0  0  0  0  0  0  0  0  0
    3.2400   -2.7073    0.0000 H   0  0  0  0  0  0  0  0  0  0  0  0
  1  6  1  0  0  0  0
  1  8  1  0  0  0  0
  2 11  1  0  0  0  0
  2 29  1  0  0  0  0
  2 30  1  0  0  0  0
  2 31  1  0  0  0  0
  3  4  1  0  0  0  0
  3  6  1  0  0  0  0
  3  7  2  0  0  0  0
  4  5  1  0  0  0  0
  4  9  2  0  0  0  0
  5 10  1  0  0  0  0
  5 13  2  0  0  0  0
  6 16  1  0  0  0  0
  6 17  1  0  0  0  0
  7 12  1  0  0  0  0
  7 18  1  0  0  0  0
  8 11  1  0  0  0  0
  8 19  1  0  0  0  0
  8 20  1  0  0  0  0
  9 14  1  0  0  0  0
  9 21  1  0  0  0  0
 10 12  2  0  0  0  0
 10 22  1  0  0  0  0
 11 23  1  0  0  0  0
 11 24  1  0  0  0  0
 12 25  1  0  0  0  0
 13 15  1  0  0  0  0
 13 26  1  0  0  0  0
 14 15  2  0  0  0  0
 14 27  1  0  0  0  0
 15 28  1  0  0  0  0
M  CHG  1   2   1
M  END
> <PUBCHEM_COMPOUND_CID>
27374119

> <PUBCHEM_COMPOUND_CANONICALIZED>
1

> <PUBCHEM_CACTVS_COMPLEXITY>
183

> <PUBCHEM_CACTVS_HBOND_ACCEPTOR>
1

> <PUBCHEM_CACTVS_HBOND_DONOR>
1

> <PUBCHEM_CACTVS_ROTATABLE_BOND>
4

> <PUBCHEM_CACTVS_SUBSKEYS>
AAADceByAABAAAAAAAAAAAAAAAAAAAAAAAAwYAAAAAAAAADBUAAAHAQQAAAADADFWASwAMBAAAiAAiBCAAACAAAgABAIiIAAAIgIICKgERCAIAAgkAAoiAcAgMAOgAACAAAQAAAAAAQAACAAAAAAAAAAAA==

> <PUBCHEM_IUPAC_OPENEYE_NAME>
2-(1-naphthylmethylsulfanyl)ethylammonium

> <PUBCHEM_IUPAC_CAS_NAME>
2-(1-naphthalenylmethylthio)ethylammonium

> <PUBCHEM_IUPAC_NAME>
2-(naphthalen-1-ylmethylsulfanyl)ethylazanium

> <PUBCHEM_IUPAC_SYSTEMATIC_NAME>
2-(naphthalen-1-ylmethylsulfanyl)ethylazanium

> <PUBCHEM_IUPAC_TRADITIONAL_NAME>
2-(1-naphthylmethylthio)ethylammonium

> <PUBCHEM_IUPAC_INCHI>
InChI=1S/C13H15NS/c14-8-9-15-10-12-6-3-5-11-4-1-2-7-13(11)12/h1-7H,8-10,14H2/p+1

> <PUBCHEM_IUPAC_INCHIKEY>
YSIYYYWNPCHYKN-UHFFFAOYSA-O

> <PUBCHEM_XLOGP3>
2.8

> <PUBCHEM_EXACT_MASS>
218.100346

> <PUBCHEM_MOLECULAR_FORMULA>
C13H16NS+

> <PUBCHEM_MOLECULAR_WEIGHT>
218.33784

> <PUBCHEM_OPENEYE_CAN_SMILES>
C1=CC=C2C(=C1)C=CC=C2CSCC[NH3+]

> <PUBCHEM_OPENEYE_ISO_SMILES>
C1=CC=C2C(=C1)C=CC=C2CSCC[NH3+]

> <PUBCHEM_CACTVS_TPSA>
52.9

> <PUBCHEM_MONOISOTOPIC_WEIGHT>
218.100346

> <PUBCHEM_TOTAL_CHARGE>
1

> <PUBCHEM_HEAVY_ATOM_COUNT>
15

> <PUBCHEM_ATOM_DEF_STEREO_COUNT>
0

> <PUBCHEM_ATOM_UDEF_STEREO_COUNT>
0

> <PUBCHEM_BOND_DEF_STEREO_COUNT>
0

> <PUBCHEM_BOND_UDEF_STEREO_COUNT>
0

> <PUBCHEM_ISOTOPIC_ATOM_COUNT>
0

> <PUBCHEM_COMPONENT_COUNT>
1

> <PUBCHEM_CACTVS_TAUTO_COUNT>
1

> <PUBCHEM_COORDINATE_TYPE>
1
5
255

> <PUBCHEM_BONDANNOTATIONS>
10  12  8
13  15  8
14  15  8
3  4  8
3  7  8
4  5  8
4  9  8
5  10  8
5  13  8
7  12  8
9  14  8

$$$$
