27607795
  -OEChem-06111304212D

 48 50  0     1  0  0  0  0  0999 V2000
    5.8632   -1.2934    0.0000 O   0  0  0  0  0  0  0  0  0  0  0  0
    8.0538   -2.7769    0.0000 N   0  3  0  0  0  0  0  0  0  0  0  0
    3.8723    0.6725    0.0000 C   0  0  2  0  0  0  0  0  0  0  0  0
    4.3501    2.6211    0.0000 C   0  0  0  0  0  0  0  0  0  0  0  0
    3.6135    1.6385    0.0000 C   0  0  1  0  0  0  0  0  0  0  0  0
    5.6044   -0.3275    0.0000 C   0  0  2  0  0  0  0  0  0  0  0  0
    2.0404   -0.0863    0.0000 C   0  0  0  0  0  0  0  0  0  0  0  0
    6.1044    0.5386    0.0000 C   0  0  0  0  0  0  0  0  0  0  0  0
    1.7815    0.8797    0.0000 C   0  0  0  0  0  0  0  0  0  0  0  0
    4.1311   -0.2934    0.0000 C   0  0  0  0  0  0  0  0  0  0  0  0
    4.2456    3.6156    0.0000 C   0  0  0  0  0  0  0  0  0  0  0  0
    5.2636    3.0278    0.0000 C   0  0  0  0  0  0  0  0  0  0  0  0
    6.8291   -1.5522    0.0000 C   0  0  0  0  0  0  0  0  0  0  0  0
    7.0879   -2.5181    0.0000 C   0  0  0  0  0  0  0  0  0  0  0  0
    8.3127   -1.8110    0.0000 C   0  0  0  0  0  0  0  0  0  0  0  0
    8.8925   -3.3216    0.0000 C   0  0  0  0  0  0  0  0  0  0  0  0
    9.6697   -2.6923    0.0000 C   0  0  0  0  0  0  0  0  0  0  0  0
    9.3113   -1.7587    0.0000 C   0  0  0  0  0  0  0  0  0  0  0  0
    3.3935    2.4595    0.0000 H   0  0  0  0  0  0  0  0  0  0  0  0
    5.1125   -0.7049    0.0000 H   0  0  0  0  0  0  0  0  0  0  0  0
    2.2524   -0.6689    0.0000 H   0  0  0  0  0  0  0  0  0  0  0  0
    1.4490   -0.2727    0.0000 H   0  0  0  0  0  0  0  0  0  0  0  0
    6.3750    1.0964    0.0000 H   0  0  0  0  0  0  0  0  0  0  0  0
    6.6521    0.2481    0.0000 H   0  0  0  0  0  0  0  0  0  0  0  0
    1.1902    0.6932    0.0000 H   0  0  0  0  0  0  0  0  0  0  0  0
    1.5695    1.4623    0.0000 H   0  0  0  0  0  0  0  0  0  0  0  0
    4.7300   -0.1329    0.0000 H   0  0  0  0  0  0  0  0  0  0  0  0
    4.2916   -0.8923    0.0000 H   0  0  0  0  0  0  0  0  0  0  0  0
    3.5322   -0.4538    0.0000 H   0  0  0  0  0  0  0  0  0  0  0  0
    3.6290    3.5508    0.0000 H   0  0  0  0  0  0  0  0  0  0  0  0
    4.1808    4.2322    0.0000 H   0  0  0  0  0  0  0  0  0  0  0  0
    5.0115    3.5942    0.0000 H   0  0  0  0  0  0  0  0  0  0  0  0
    5.8300    3.2800    0.0000 H   0  0  0  0  0  0  0  0  0  0  0  0
    5.5158    2.4614    0.0000 H   0  0  0  0  0  0  0  0  0  0  0  0
    4.8622    3.6804    0.0000 H   0  0  0  0  0  0  0  0  0  0  0  0
    6.8831   -0.9346    0.0000 H   0  0  0  0  0  0  0  0  0  0  0  0
    7.4467   -1.4982    0.0000 H   0  0  0  0  0  0  0  0  0  0  0  0
    7.0339   -3.1358    0.0000 H   0  0  0  0  0  0  0  0  0  0  0  0
    6.4703   -2.5722    0.0000 H   0  0  0  0  0  0  0  0  0  0  0  0
    7.5092   -3.6156    0.0000 H   0  0  0  0  0  0  0  0  0  0  0  0
    9.3309   -3.7600    0.0000 H   0  0  0  0  0  0  0  0  0  0  0  0
    8.5023   -3.8034    0.0000 H   0  0  0  0  0  0  0  0  0  0  0  0
    7.7003   -1.7140    0.0000 H   0  0  0  0  0  0  0  0  0  0  0  0
    8.3451   -1.1919    0.0000 H   0  0  0  0  0  0  0  0  0  0  0  0
   10.2221   -2.4108    0.0000 H   0  0  0  0  0  0  0  0  0  0  0  0
   10.0073   -3.2122    0.0000 H   0  0  0  0  0  0  0  0  0  0  0  0
    9.2143   -1.1463    0.0000 H   0  0  0  0  0  0  0  0  0  0  0  0
    9.9102   -1.5982    0.0000 H   0  0  0  0  0  0  0  0  0  0  0  0
  6  1  1  6  0  0  0
  1 13  1  0  0  0  0
  2 14  1  0  0  0  0
  2 15  1  0  0  0  0
  2 16  1  0  0  0  0
  2 40  1  0  0  0  0
  3  4  1  0  0  0  0
  3  6  1  0  0  0  0
  3  7  1  0  0  0  0
  3 10  1  1  0  0  0
  4  5  1  0  0  0  0
  4 11  1  0  0  0  0
  4 12  1  0  0  0  0
  5  8  1  0  0  0  0
  5  9  1  0  0  0  0
  5 19  1  6  0  0  0
  6  8  1  0  0  0  0
  6 20  1  0  0  0  0
  7  9  1  0  0  0  0
  7 21  1  0  0  0  0
  7 22  1  0  0  0  0
  8 23  1  0  0  0  0
  8 24  1  0  0  0  0
  9 25  1  0  0  0  0
  9 26  1  0  0  0  0
 10 27  1  0  0  0  0
 10 28  1  0  0  0  0
 10 29  1  0  0  0  0
 11 30  1  0  0  0  0
 11 31  1  0  0  0  0
 11 35  1  0  0  0  0
 12 32  1  0  0  0  0
 12 33  1  0  0  0  0
 12 34  1  0  0  0  0
 13 14  1  0  0  0  0
 13 36  1  0  0  0  0
 13 37  1  0  0  0  0
 14 38  1  0  0  0  0
 14 39  1  0  0  0  0
 15 18  1  0  0  0  0
 15 43  1  0  0  0  0
 15 44  1  0  0  0  0
 16 17  1  0  0  0  0
 16 41  1  0  0  0  0
 16 42  1  0  0  0  0
 17 18  1  0  0  0  0
 17 45  1  0  0  0  0
 17 46  1  0  0  0  0
 18 47  1  0  0  0  0
 18 48  1  0  0  0  0
M  CHG  1   2   1
M  END
> <PUBCHEM_COMPOUND_CID>
27607795

> <PUBCHEM_COMPOUND_CANONICALIZED>
1

> <PUBCHEM_CACTVS_COMPLEXITY>
308

> <PUBCHEM_CACTVS_HBOND_ACCEPTOR>
1

> <PUBCHEM_CACTVS_HBOND_DONOR>
1

> <PUBCHEM_CACTVS_ROTATABLE_BOND>
4

> <PUBCHEM_CACTVS_SUBSKEYS>
AAADceB6IAAAAAAAAAAAAAAAAAAAAeMEAAAwAAAAAAAAAAAAAAAAHgAQAAAADxThgAYCAAPABAAAAAAAAAAAAAAAAAAAAIAIAAACAAIAgAAHAAAEEACQAAGAwPAPgAAAAAAAAACAAAIAABAAAYAADAAAAA==

> <PUBCHEM_IUPAC_OPENEYE_NAME>
1-[2-[(1R,2S,4R)-1,7,7-trimethylnorbornan-2-yl]oxyethyl]pyrrolidin-1-ium

> <PUBCHEM_IUPAC_CAS_NAME>
1-[2-[[(1R,3S,4R)-4,7,7-trimethyl-3-bicyclo[2.2.1]heptanyl]oxy]ethyl]pyrrolidin-1-ium

> <PUBCHEM_IUPAC_NAME>
1-[2-[[(1R,3S,4R)-4,7,7-trimethyl-3-bicyclo[2.2.1]heptanyl]oxy]ethyl]pyrrolidin-1-ium

> <PUBCHEM_IUPAC_SYSTEMATIC_NAME>
1-[2-[[(1R,3S,4R)-4,7,7-trimethyl-3-bicyclo[2.2.1]heptanyl]oxy]ethyl]pyrrolidin-1-ium

> <PUBCHEM_IUPAC_TRADITIONAL_NAME>
1-[2-[(1R,2S,4R)-1,7,7-trimethylnorbornan-2-yl]oxyethyl]pyrrolidin-1-ium

> <PUBCHEM_IUPAC_INCHI>
InChI=1S/C16H29NO/c1-15(2)13-6-7-16(15,3)14(12-13)18-11-10-17-8-4-5-9-17/h13-14H,4-12H2,1-3H3/p+1/t13-,14+,16+/m1/s1

> <PUBCHEM_IUPAC_INCHIKEY>
VIBURDKUPGOYNT-YCPHGPKFSA-O

> <PUBCHEM_XLOGP3>
3.8

> <PUBCHEM_EXACT_MASS>
252.23274

> <PUBCHEM_MOLECULAR_FORMULA>
C16H30NO+

> <PUBCHEM_MOLECULAR_WEIGHT>
252.4155

> <PUBCHEM_OPENEYE_CAN_SMILES>
CC1(C2CCC1(C(C2)OCC[NH+]3CCCC3)C)C

> <PUBCHEM_OPENEYE_ISO_SMILES>
C[C@@]12CC[C@@H](C1(C)C)C[C@@H]2OCC[NH+]3CCCC3

> <PUBCHEM_CACTVS_TPSA>
13.7

> <PUBCHEM_MONOISOTOPIC_WEIGHT>
252.23274

> <PUBCHEM_TOTAL_CHARGE>
1

> <PUBCHEM_HEAVY_ATOM_COUNT>
18

> <PUBCHEM_ATOM_DEF_STEREO_COUNT>
3

> <PUBCHEM_ATOM_UDEF_STEREO_COUNT>
0

> <PUBCHEM_BOND_DEF_STEREO_COUNT>
0

> <PUBCHEM_BOND_UDEF_STEREO_COUNT>
0

> <PUBCHEM_ISOTOPIC_ATOM_COUNT>
0

> <PUBCHEM_COMPONENT_COUNT>
1

> <PUBCHEM_CACTVS_TAUTO_COUNT>
1

> <PUBCHEM_COORDINATE_TYPE>
1
5
255

> <PUBCHEM_BONDANNOTATIONS>
6  1  6
3  10  5
5  19  6

$$$$
