50850161
  -OEChem-11301217592D

 28 29  0     0  0  0  0  0  0999 V2000
    5.4804    2.7673    0.0000 Cl  0  0  0  0  0  0  0  0  0  0  0  0
    4.5981   -1.7673    0.0000 O   0  0  0  0  0  0  0  0  0  0  0  0
    2.8660   -1.7673    0.0000 N   0  0  0  0  0  0  0  0  0  0  0  0
    4.5981    0.2327    0.0000 C   0  0  0  0  0  0  0  0  0  0  0  0
    3.7320   -0.2673    0.0000 C   0  0  0  0  0  0  0  0  0  0  0  0
    4.5981    1.2327    0.0000 C   0  0  0  0  0  0  0  0  0  0  0  0
    3.7320   -1.2673    0.0000 C   0  0  0  0  0  0  0  0  0  0  0  0
    2.8660    0.2327    0.0000 C   0  0  0  0  0  0  0  0  0  0  0  0
    5.4920   -0.3020    0.0000 C   0  0  0  0  0  0  0  0  0  0  0  0
    3.7320    1.7327    0.0000 C   0  0  0  0  0  0  0  0  0  0  0  0
    5.4920    1.7674    0.0000 C   0  0  0  0  0  0  0  0  0  0  0  0
    2.8660    1.2327    0.0000 C   0  0  0  0  0  0  0  0  0  0  0  0
    6.3981    0.2119    0.0000 C   0  0  0  0  0  0  0  0  0  0  0  0
    6.3981    1.2535    0.0000 C   0  0  0  0  0  0  0  0  0  0  0  0
    2.8660   -2.7673    0.0000 C   0  0  0  0  0  0  0  0  0  0  0  0
    2.0000   -1.2673    0.0000 C   0  0  0  0  0  0  0  0  0  0  0  0
    2.3291   -0.0773    0.0000 H   0  0  0  0  0  0  0  0  0  0  0  0
    5.4848   -0.9219    0.0000 H   0  0  0  0  0  0  0  0  0  0  0  0
    3.7320    2.3527    0.0000 H   0  0  0  0  0  0  0  0  0  0  0  0
    2.3291    1.5427    0.0000 H   0  0  0  0  0  0  0  0  0  0  0  0
    6.9338   -0.1002    0.0000 H   0  0  0  0  0  0  0  0  0  0  0  0
    6.9338    1.5656    0.0000 H   0  0  0  0  0  0  0  0  0  0  0  0
    2.2460   -2.7673    0.0000 H   0  0  0  0  0  0  0  0  0  0  0  0
    2.8660   -3.3873    0.0000 H   0  0  0  0  0  0  0  0  0  0  0  0
    3.4860   -2.7673    0.0000 H   0  0  0  0  0  0  0  0  0  0  0  0
    2.3100   -0.7304    0.0000 H   0  0  0  0  0  0  0  0  0  0  0  0
    1.4631   -0.9573    0.0000 H   0  0  0  0  0  0  0  0  0  0  0  0
    1.6900   -1.8042    0.0000 H   0  0  0  0  0  0  0  0  0  0  0  0
  1 11  1  0  0  0  0
  2  7  2  0  0  0  0
  3  7  1  0  0  0  0
  3 15  1  0  0  0  0
  3 16  1  0  0  0  0
  4  5  1  0  0  0  0
  4  6  2  0  0  0  0
  4  9  1  0  0  0  0
  5  7  1  0  0  0  0
  5  8  2  0  0  0  0
  6 10  1  0  0  0  0
  6 11  1  0  0  0  0
  8 12  1  0  0  0  0
  8 17  1  0  0  0  0
  9 13  2  0  0  0  0
  9 18  1  0  0  0  0
 10 12  2  0  0  0  0
 10 19  1  0  0  0  0
 11 14  2  0  0  0  0
 12 20  1  0  0  0  0
 13 14  1  0  0  0  0
 13 21  1  0  0  0  0
 14 22  1  0  0  0  0
 15 23  1  0  0  0  0
 15 24  1  0  0  0  0
 15 25  1  0  0  0  0
 16 26  1  0  0  0  0
 16 27  1  0  0  0  0
 16 28  1  0  0  0  0
M  END
> <PUBCHEM_COMPOUND_CID>
50850161

> <PUBCHEM_COMPOUND_CANONICALIZED>
1

> <PUBCHEM_CACTVS_COMPLEXITY>
267

> <PUBCHEM_CACTVS_HBOND_ACCEPTOR>
1

> <PUBCHEM_CACTVS_HBOND_DONOR>
0

> <PUBCHEM_CACTVS_ROTATABLE_BOND>
1

> <PUBCHEM_CACTVS_SUBSKEYS>
AAADccByIAAEAAAAAAAAAAAAAAAAAAAAAAAwYAAAAAAAAADBUAAAHgIAAAAADAKBmCQyAMMAAACIAiFSEACCAAAkBQAIiAEIBsgIIDKBlxGEIQhgggAIiYcYiMCOgAACIAARAAAAAARAACIAAAAAAAAAAA==

> <PUBCHEM_IUPAC_OPENEYE_NAME>
5-chloro-N,N-dimethyl-naphthalene-1-carboxamide

> <PUBCHEM_IUPAC_CAS_NAME>
5-chloro-N,N-dimethyl-1-naphthalenecarboxamide

> <PUBCHEM_IUPAC_NAME>
5-chloro-N,N-dimethylnaphthalene-1-carboxamide

> <PUBCHEM_IUPAC_SYSTEMATIC_NAME>
5-chloranyl-N,N-dimethyl-naphthalene-1-carboxamide

> <PUBCHEM_IUPAC_TRADITIONAL_NAME>
5-chloro-N,N-dimethyl-1-naphthamide

> <PUBCHEM_IUPAC_INCHI>
InChI=1S/C13H12ClNO/c1-15(2)13(16)11-7-3-6-10-9(11)5-4-8-12(10)14/h3-8H,1-2H3

> <PUBCHEM_IUPAC_INCHIKEY>
FMFUKVCJQFVNFO-UHFFFAOYSA-N

> <PUBCHEM_XLOGP3>
3.5

> <PUBCHEM_EXACT_MASS>
233.060742

> <PUBCHEM_MOLECULAR_FORMULA>
C13H12ClNO

> <PUBCHEM_MOLECULAR_WEIGHT>
233.69348

> <PUBCHEM_OPENEYE_CAN_SMILES>
CN(C)C(=O)C1=CC=CC2=C1C=CC=C2Cl

> <PUBCHEM_OPENEYE_ISO_SMILES>
CN(C)C(=O)C1=CC=CC2=C1C=CC=C2Cl

> <PUBCHEM_CACTVS_TPSA>
20.3

> <PUBCHEM_MONOISOTOPIC_WEIGHT>
233.060742

> <PUBCHEM_TOTAL_CHARGE>
0

> <PUBCHEM_HEAVY_ATOM_COUNT>
16

> <PUBCHEM_ATOM_DEF_STEREO_COUNT>
0

> <PUBCHEM_ATOM_UDEF_STEREO_COUNT>
0

> <PUBCHEM_BOND_DEF_STEREO_COUNT>
0

> <PUBCHEM_BOND_UDEF_STEREO_COUNT>
0

> <PUBCHEM_ISOTOPIC_ATOM_COUNT>
0

> <PUBCHEM_COMPONENT_COUNT>
1

> <PUBCHEM_CACTVS_TAUTO_COUNT>
1

> <PUBCHEM_COORDINATE_TYPE>
1
5
255

> <PUBCHEM_BONDANNOTATIONS>
10  12  8
11  14  8
13  14  8
4  5  8
4  6  8
4  9  8
5  8  8
6  10  8
6  11  8
8  12  8
9  13  8

$$$$
50852258
  -OEChem-11301217592D

 41 43  0     0  0  0  0  0  0999 V2000
    4.0169   -2.0953    0.0000 N   0  0  0  0  0  0  0  0  0  0  0  0
    5.3830    2.5953    0.0000 C   0  0  0  0  0  0  0  0  0  0  0  0
    4.3830    2.5953    0.0000 C   0  0  0  0  0  0  0  0  0  0  0  0
    6.0065    1.8135    0.0000 C   0  0  0  0  0  0  0  0  0  0  0  0
    3.7595    1.8135    0.0000 C   0  0  0  0  0  0  0  0  0  0  0  0
    4.8830    0.4047    0.0000 C   0  0  0  0  0  0  0  0  0  0  0  0
    3.9820    0.8386    0.0000 C   0  0  0  0  0  0  0  0  0  0  0  0
    5.7840    0.8386    0.0000 C   0  0  0  0  0  0  0  0  0  0  0  0
    4.8830   -0.5953    0.0000 C   0  0  0  0  0  0  0  0  0  0  0  0
    6.9970    2.1358    0.0000 C   0  0  0  0  0  0  0  0  0  0  0  0
    2.7690    2.1358    0.0000 C   0  0  0  0  0  0  0  0  0  0  0  0
    6.5365    0.1184    0.0000 C   0  0  0  0  0  0  0  0  0  0  0  0
    3.2295    0.1184    0.0000 C   0  0  0  0  0  0  0  0  0  0  0  0
    4.0170   -1.0953    0.0000 C   0  0  0  0  0  0  0  0  0  0  0  0
    2.0000    1.4333    0.0000 C   0  0  0  0  0  0  0  0  0  0  0  0
    7.7660    1.4332    0.0000 C   0  0  0  0  0  0  0  0  0  0  0  0
    2.2318    0.4177    0.0000 C   0  0  0  0  0  0  0  0  0  0  0  0
    7.5342    0.4177    0.0000 C   0  0  0  0  0  0  0  0  0  0  0  0
    3.1509   -2.5953    0.0000 C   0  0  0  0  0  0  0  0  0  0  0  0
    4.8830   -2.5953    0.0000 C   0  0  0  0  0  0  0  0  0  0  0  0
    4.5210    3.1998    0.0000 H   0  0  0  0  0  0  0  0  0  0  0  0
    3.8244    2.8643    0.0000 H   0  0  0  0  0  0  0  0  0  0  0  0
    5.9416    2.8643    0.0000 H   0  0  0  0  0  0  0  0  0  0  0  0
    5.2450    3.1998    0.0000 H   0  0  0  0  0  0  0  0  0  0  0  0
    5.4199   -0.9053    0.0000 H   0  0  0  0  0  0  0  0  0  0  0  0
    2.6380    2.7418    0.0000 H   0  0  0  0  0  0  0  0  0  0  0  0
    7.1280    2.7418    0.0000 H   0  0  0  0  0  0  0  0  0  0  0  0
    3.3744   -0.4844    0.0000 H   0  0  0  0  0  0  0  0  0  0  0  0
    6.3916   -0.4844    0.0000 H   0  0  0  0  0  0  0  0  0  0  0  0
    3.8049   -0.5127    0.0000 H   0  0  0  0  0  0  0  0  0  0  0  0
    3.4064   -1.2030    0.0000 H   0  0  0  0  0  0  0  0  0  0  0  0
    1.4083    1.6183    0.0000 H   0  0  0  0  0  0  0  0  0  0  0  0
    8.3578    1.6182    0.0000 H   0  0  0  0  0  0  0  0  0  0  0  0
    1.7789   -0.0057    0.0000 H   0  0  0  0  0  0  0  0  0  0  0  0
    7.9871   -0.0058    0.0000 H   0  0  0  0  0  0  0  0  0  0  0  0
    4.5730   -3.1323    0.0000 H   0  0  0  0  0  0  0  0  0  0  0  0
    5.4199   -2.9053    0.0000 H   0  0  0  0  0  0  0  0  0  0  0  0
    5.1930   -2.0584    0.0000 H   0  0  0  0  0  0  0  0  0  0  0  0
    2.8409   -2.0584    0.0000 H   0  0  0  0  0  0  0  0  0  0  0  0
    2.6140   -2.9053    0.0000 H   0  0  0  0  0  0  0  0  0  0  0  0
    3.4609   -3.1322    0.0000 H   0  0  0  0  0  0  0  0  0  0  0  0
  1 14  1  0  0  0  0
  1 19  1  0  0  0  0
  1 20  1  0  0  0  0
  2  3  1  0  0  0  0
  2  4  1  0  0  0  0
  2 23  1  0  0  0  0
  2 24  1  0  0  0  0
  3  5  1  0  0  0  0
  3 21  1  0  0  0  0
  3 22  1  0  0  0  0
  4  8  1  0  0  0  0
  4 10  2  0  0  0  0
  5  7  1  0  0  0  0
  5 11  2  0  0  0  0
  6  7  1  0  0  0  0
  6  8  1  0  0  0  0
  6  9  2  0  0  0  0
  7 13  2  0  0  0  0
  8 12  2  0  0  0  0
  9 14  1  0  0  0  0
  9 25  1  0  0  0  0
 10 16  1  0  0  0  0
 10 27  1  0  0  0  0
 11 15  1  0  0  0  0
 11 26  1  0  0  0  0
 12 18  1  0  0  0  0
 12 29  1  0  0  0  0
 13 17  1  0  0  0  0
 13 28  1  0  0  0  0
 14 30  1  0  0  0  0
 14 31  1  0  0  0  0
 15 17  2  0  0  0  0
 15 32  1  0  0  0  0
 16 18  2  0  0  0  0
 16 33  1  0  0  0  0
 17 34  1  0  0  0  0
 18 35  1  0  0  0  0
 19 39  1  0  0  0  0
 19 40  1  0  0  0  0
 19 41  1  0  0  0  0
 20 36  1  0  0  0  0
 20 37  1  0  0  0  0
 20 38  1  0  0  0  0
M  END
> <PUBCHEM_COMPOUND_CID>
50852258

> <PUBCHEM_COMPOUND_CANONICALIZED>
1

> <PUBCHEM_CACTVS_COMPLEXITY>
318

> <PUBCHEM_CACTVS_HBOND_ACCEPTOR>
1

> <PUBCHEM_CACTVS_HBOND_DONOR>
0

> <PUBCHEM_CACTVS_ROTATABLE_BOND>
2

> <PUBCHEM_CACTVS_SUBSKEYS>
AAADceB6AAAAAAAAAAAAAAAAAAAAAAAAAAAwYAAABgAAAAABQAAAHAAAAAAADADBGAQyAIMAAACAAiBCAACCAAAgAAAIiAAIAIgIICKAERCAIAAggAAIiAcAgMAOgAAAAAAQAAAAAAAAACAAAAAAAAAAAA==

> <PUBCHEM_IUPAC_OPENEYE_NAME>
2-(5,6-dihydrodibenzo[2,1-b:2',1'-f][7]annulen-11-ylidene)-N,N-dimethyl-ethanamine

> <PUBCHEM_IUPAC_CAS_NAME>
2-(5,6-dihydrodibenzo[2,1-b:2',1'-f][7]annulen-11-ylidene)-N,N-dimethylethanamine

> <PUBCHEM_IUPAC_NAME>
2-(5,6-dihydrodibenzo[2,1-b:2',1'-f][7]annulen-11-ylidene)-N,N-dimethylethanamine

> <PUBCHEM_IUPAC_SYSTEMATIC_NAME>
2-(5,6-dihydrodibenzo[2,1-b:2',1'-f][7]annulen-11-ylidene)-N,N-dimethyl-ethanamine

> <PUBCHEM_IUPAC_TRADITIONAL_NAME>
2-(5,6-dihydrodibenzo[2,1-b:2',1'-f]cyclohepten-11-ylidene)ethyl-dimethyl-amine

> <PUBCHEM_IUPAC_INCHI>
InChI=1S/C19H21N/c1-20(2)14-13-19-17-9-5-3-7-15(17)11-12-16-8-4-6-10-18(16)19/h3-10,13H,11-12,14H2,1-2H3

> <PUBCHEM_IUPAC_INCHIKEY>
LBDDZFUKGGIYMC-UHFFFAOYSA-N

> <PUBCHEM_XLOGP3>
4.6

> <PUBCHEM_EXACT_MASS>
263.1674

> <PUBCHEM_MOLECULAR_FORMULA>
C19H21N

> <PUBCHEM_MOLECULAR_WEIGHT>
263.37674

> <PUBCHEM_OPENEYE_CAN_SMILES>
CN(C)CC=C1C2=CC=CC=C2CCC3=CC=CC=C31

> <PUBCHEM_OPENEYE_ISO_SMILES>
CN(C)CC=C1C2=CC=CC=C2CCC3=CC=CC=C31

> <PUBCHEM_CACTVS_TPSA>
3.2

> <PUBCHEM_MONOISOTOPIC_WEIGHT>
263.1674

> <PUBCHEM_TOTAL_CHARGE>
0

> <PUBCHEM_HEAVY_ATOM_COUNT>
20

> <PUBCHEM_ATOM_DEF_STEREO_COUNT>
0

> <PUBCHEM_ATOM_UDEF_STEREO_COUNT>
0

> <PUBCHEM_BOND_DEF_STEREO_COUNT>
0

> <PUBCHEM_BOND_UDEF_STEREO_COUNT>
0

> <PUBCHEM_ISOTOPIC_ATOM_COUNT>
0

> <PUBCHEM_COMPONENT_COUNT>
1

> <PUBCHEM_CACTVS_TAUTO_COUNT>
1

> <PUBCHEM_COORDINATE_TYPE>
1
5
255

> <PUBCHEM_BONDANNOTATIONS>
10  16  8
11  15  8
12  18  8
13  17  8
15  17  8
16  18  8
4  10  8
4  8  8
5  11  8
5  7  8
7  13  8
8  12  8

$$$$
50852808
  -OEChem-11301217592D

 25 25  0     1  0  0  0  0  0999 V2000
    4.5981    3.0000    0.0000 Cl  0  0  0  0  0  0  0  0  0  0  0  0
    4.5981    0.0000    0.0000 O   0  0  0  0  0  0  0  0  0  0  0  0
    2.8660    0.0000    0.0000 N   0  0  0  0  0  0  0  0  0  0  0  0
    3.7320    1.5000    0.0000 C   0  0  0  0  0  0  0  0  0  0  0  0
    4.5981    2.0000    0.0000 C   0  0  3  0  0  0  0  0  0  0  0  0
    3.7320    0.5000    0.0000 C   0  0  0  0  0  0  0  0  0  0  0  0
    5.4641    1.5000    0.0000 C   0  0  0  0  0  0  0  0  0  0  0  0
    2.8660   -1.0000    0.0000 C   0  0  0  0  0  0  0  0  0  0  0  0
    2.0000   -1.5000    0.0000 C   0  0  0  0  0  0  0  0  0  0  0  0
    3.7320   -1.5000    0.0000 C   0  0  0  0  0  0  0  0  0  0  0  0
    2.0000   -2.5000    0.0000 C   0  0  0  0  0  0  0  0  0  0  0  0
    3.7320   -2.5000    0.0000 C   0  0  0  0  0  0  0  0  0  0  0  0
    2.8660   -3.0000    0.0000 C   0  0  0  0  0  0  0  0  0  0  0  0
    3.5200    2.0826    0.0000 H   0  0  0  0  0  0  0  0  0  0  0  0
    3.1215    1.3923    0.0000 H   0  0  0  0  0  0  0  0  0  0  0  0
    5.1350    2.3100    0.0000 H   0  0  0  0  0  0  0  0  0  0  0  0
    5.1541    0.9631    0.0000 H   0  0  0  0  0  0  0  0  0  0  0  0
    6.0010    1.1900    0.0000 H   0  0  0  0  0  0  0  0  0  0  0  0
    5.7741    2.0369    0.0000 H   0  0  0  0  0  0  0  0  0  0  0  0
    2.3291    0.3100    0.0000 H   0  0  0  0  0  0  0  0  0  0  0  0
    1.4631   -1.1900    0.0000 H   0  0  0  0  0  0  0  0  0  0  0  0
    4.2690   -1.1900    0.0000 H   0  0  0  0  0  0  0  0  0  0  0  0
    1.4631   -2.8100    0.0000 H   0  0  0  0  0  0  0  0  0  0  0  0
    4.2690   -2.8100    0.0000 H   0  0  0  0  0  0  0  0  0  0  0  0
    2.8660   -3.6200    0.0000 H   0  0  0  0  0  0  0  0  0  0  0  0
  1  5  1  0  0  0  0
  2  6  2  0  0  0  0
  3  6  1  0  0  0  0
  3  8  1  0  0  0  0
  3 20  1  0  0  0  0
  4  5  1  0  0  0  0
  4  6  1  0  0  0  0
  4 14  1  0  0  0  0
  4 15  1  0  0  0  0
  5  7  1  0  0  0  0
  5 16  1  0  0  0  0
  7 17  1  0  0  0  0
  7 18  1  0  0  0  0
  7 19  1  0  0  0  0
  8  9  2  0  0  0  0
  8 10  1  0  0  0  0
  9 11  1  0  0  0  0
  9 21  1  0  0  0  0
 10 12  2  0  0  0  0
 10 22  1  0  0  0  0
 11 13  2  0  0  0  0
 11 23  1  0  0  0  0
 12 13  1  0  0  0  0
 12 24  1  0  0  0  0
 13 25  1  0  0  0  0
M  END
> <PUBCHEM_COMPOUND_CID>
50852808

> <PUBCHEM_COMPOUND_CANONICALIZED>
1

> <PUBCHEM_CACTVS_COMPLEXITY>
166

> <PUBCHEM_CACTVS_HBOND_ACCEPTOR>
1

> <PUBCHEM_CACTVS_HBOND_DONOR>
1

> <PUBCHEM_CACTVS_ROTATABLE_BOND>
3

> <PUBCHEM_CACTVS_SUBSKEYS>
AAADccByIAAEAAAAAAAAAAAAAAAAAAAAAAAwAAAAAAAAAAABAAAAHgIQAAAACAuBkEAywILAAACIACVSUACCAAAhAgAIiAEAZogIIDLAkZGEIAhglADIyAcQAAAAAAAAAAAAAAAAAAAAAAAAAAAAAAAAAA==

> <PUBCHEM_IUPAC_OPENEYE_NAME>
3-chloro-N-phenyl-butanamide

> <PUBCHEM_IUPAC_CAS_NAME>
3-chloro-N-phenylbutanamide

> <PUBCHEM_IUPAC_NAME>
3-chloro-N-phenylbutanamide

> <PUBCHEM_IUPAC_SYSTEMATIC_NAME>
3-chloranyl-N-phenyl-butanamide

> <PUBCHEM_IUPAC_TRADITIONAL_NAME>
3-chloro-N-phenyl-butyramide

> <PUBCHEM_IUPAC_INCHI>
InChI=1S/C10H12ClNO/c1-8(11)7-10(13)12-9-5-3-2-4-6-9/h2-6,8H,7H2,1H3,(H,12,13)

> <PUBCHEM_IUPAC_INCHIKEY>
VVAFDIQSUJLHBL-UHFFFAOYSA-N

> <PUBCHEM_XLOGP3>
2.1

> <PUBCHEM_EXACT_MASS>
197.060742

> <PUBCHEM_MOLECULAR_FORMULA>
C10H12ClNO

> <PUBCHEM_MOLECULAR_WEIGHT>
197.66138

> <PUBCHEM_OPENEYE_CAN_SMILES>
CC(CC(=O)NC1=CC=CC=C1)Cl

> <PUBCHEM_OPENEYE_ISO_SMILES>
CC(CC(=O)NC1=CC=CC=C1)Cl

> <PUBCHEM_CACTVS_TPSA>
29.1

> <PUBCHEM_MONOISOTOPIC_WEIGHT>
197.060742

> <PUBCHEM_TOTAL_CHARGE>
0

> <PUBCHEM_HEAVY_ATOM_COUNT>
13

> <PUBCHEM_ATOM_DEF_STEREO_COUNT>
0

> <PUBCHEM_ATOM_UDEF_STEREO_COUNT>
1

> <PUBCHEM_BOND_DEF_STEREO_COUNT>
0

> <PUBCHEM_BOND_UDEF_STEREO_COUNT>
0

> <PUBCHEM_ISOTOPIC_ATOM_COUNT>
0

> <PUBCHEM_COMPONENT_COUNT>
1

> <PUBCHEM_CACTVS_TAUTO_COUNT>
3

> <PUBCHEM_COORDINATE_TYPE>
1
5
255

> <PUBCHEM_BONDANNOTATIONS>
5  1  3
10  12  8
11  13  8
12  13  8
8  10  8
8  9  8
9  11  8

$$$$
50852810
  -OEChem-11301217592D

 19 20  0     0  0  0  0  0  0999 V2000
    2.0000   -1.9330    0.0000 F   0  0  0  0  0  0  0  0  0  0  0  0
    3.7320    1.0670    0.0000 C   0  0  0  0  0  0  0  0  0  0  0  0
    4.2320    1.9330    0.0000 C   0  0  0  0  0  0  0  0  0  0  0  0
    3.2320    1.9330    0.0000 C   0  0  0  0  0  0  0  0  0  0  0  0
    3.7320    0.0670    0.0000 C   0  0  0  0  0  0  0  0  0  0  0  0
    2.8660   -0.4330    0.0000 C   0  0  0  0  0  0  0  0  0  0  0  0
    4.5981   -0.4330    0.0000 C   0  0  0  0  0  0  0  0  0  0  0  0
    2.8660   -1.4330    0.0000 C   0  0  0  0  0  0  0  0  0  0  0  0
    4.5981   -1.4330    0.0000 C   0  0  0  0  0  0  0  0  0  0  0  0
    3.7320   -1.9330    0.0000 C   0  0  0  0  0  0  0  0  0  0  0  0
    4.3309    0.9065    0.0000 H   0  0  0  0  0  0  0  0  0  0  0  0
    4.8147    1.7210    0.0000 H   0  0  0  0  0  0  0  0  0  0  0  0
    4.3397    2.5436    0.0000 H   0  0  0  0  0  0  0  0  0  0  0  0
    3.1244    2.5436    0.0000 H   0  0  0  0  0  0  0  0  0  0  0  0
    2.6494    1.7210    0.0000 H   0  0  0  0  0  0  0  0  0  0  0  0
    2.3291   -0.1230    0.0000 H   0  0  0  0  0  0  0  0  0  0  0  0
    5.1350   -0.1230    0.0000 H   0  0  0  0  0  0  0  0  0  0  0  0
    5.1350   -1.7430    0.0000 H   0  0  0  0  0  0  0  0  0  0  0  0
    3.7320   -2.5530    0.0000 H   0  0  0  0  0  0  0  0  0  0  0  0
  1  8  1  0  0  0  0
  2  3  1  0  0  0  0
  2  4  1  0  0  0  0
  2  5  1  0  0  0  0
  2 11  1  0  0  0  0
  3  4  1  0  0  0  0
  3 12  1  0  0  0  0
  3 13  1  0  0  0  0
  4 14  1  0  0  0  0
  4 15  1  0  0  0  0
  5  6  2  0  0  0  0
  5  7  1  0  0  0  0
  6  8  1  0  0  0  0
  6 16  1  0  0  0  0
  7  9  2  0  0  0  0
  7 17  1  0  0  0  0
  8 10  2  0  0  0  0
  9 10  1  0  0  0  0
  9 18  1  0  0  0  0
 10 19  1  0  0  0  0
M  END
> <PUBCHEM_COMPOUND_CID>
50852810

> <PUBCHEM_COMPOUND_CANONICALIZED>
1

> <PUBCHEM_CACTVS_COMPLEXITY>
118

> <PUBCHEM_CACTVS_HBOND_ACCEPTOR>
1

> <PUBCHEM_CACTVS_HBOND_DONOR>
0

> <PUBCHEM_CACTVS_ROTATABLE_BOND>
1

> <PUBCHEM_CACTVS_SUBSKEYS>
AAADccBwAQAAAAAAAAAAAAAAGAAAAAAAAAAwAAAAAAAAAAABAAAAGQAAAAAADQCAGAgwAIAAAACAAiBCAAACAAAgAAAIiAAAAIgIICKAERCAIAAggAAIiAcAgMAOgAAAAAAAAAAAAAAAAAAAAAAAAAAAAA==

> <PUBCHEM_IUPAC_OPENEYE_NAME>
1-cyclopropyl-3-fluoro-benzene

> <PUBCHEM_IUPAC_CAS_NAME>
1-cyclopropyl-3-fluorobenzene

> <PUBCHEM_IUPAC_NAME>
1-cyclopropyl-3-fluorobenzene

> <PUBCHEM_IUPAC_SYSTEMATIC_NAME>
1-cyclopropyl-3-fluoranyl-benzene

> <PUBCHEM_IUPAC_TRADITIONAL_NAME>
1-cyclopropyl-3-fluoro-benzene

> <PUBCHEM_IUPAC_INCHI>
InChI=1S/C9H9F/c10-9-3-1-2-8(6-9)7-4-5-7/h1-3,6-7H,4-5H2

> <PUBCHEM_IUPAC_INCHIKEY>
HFQGSVHXIJLSBE-UHFFFAOYSA-N

> <PUBCHEM_XLOGP3>
3.3

> <PUBCHEM_EXACT_MASS>
136.068829

> <PUBCHEM_MOLECULAR_FORMULA>
C9H9F

> <PUBCHEM_MOLECULAR_WEIGHT>
136.166163

> <PUBCHEM_OPENEYE_CAN_SMILES>
C1CC1C2=CC(=CC=C2)F

> <PUBCHEM_OPENEYE_ISO_SMILES>
C1CC1C2=CC(=CC=C2)F

> <PUBCHEM_CACTVS_TPSA>
0

> <PUBCHEM_MONOISOTOPIC_WEIGHT>
136.068829

> <PUBCHEM_TOTAL_CHARGE>
0

> <PUBCHEM_HEAVY_ATOM_COUNT>
10

> <PUBCHEM_ATOM_DEF_STEREO_COUNT>
0

> <PUBCHEM_ATOM_UDEF_STEREO_COUNT>
0

> <PUBCHEM_BOND_DEF_STEREO_COUNT>
0

> <PUBCHEM_BOND_UDEF_STEREO_COUNT>
0

> <PUBCHEM_ISOTOPIC_ATOM_COUNT>
0

> <PUBCHEM_COMPONENT_COUNT>
1

> <PUBCHEM_CACTVS_TAUTO_COUNT>
1

> <PUBCHEM_COORDINATE_TYPE>
1
5
255

> <PUBCHEM_BONDANNOTATIONS>
5  6  8
5  7  8
6  8  8
7  9  8
8  10  8
9  10  8

$$$$
50874594
  -OEChem-11301218012D

 38 40  0     0  0  0  0  0  0999 V2000
    4.7320   -2.8343    0.0000 O   0  0  0  0  0  0  0  0  0  0  0  0
    3.8660   -1.3343    0.0000 N   0  0  0  0  0  0  0  0  0  0  0  0
    3.0000   -2.8343    0.0000 C   0  0  0  0  0  0  0  0  0  0  0  0
    2.0000   -2.8343    0.0000 C   0  0  0  0  0  0  0  0  0  0  0  0
    2.5000   -3.7003    0.0000 C   0  0  0  0  0  0  0  0  0  0  0  0
    3.8660   -2.3343    0.0000 C   0  0  0  0  0  0  0  0  0  0  0  0
    4.7320   -0.8343    0.0000 C   0  0  0  0  0  0  0  0  0  0  0  0
    4.7320    0.1657    0.0000 C   0  0  0  0  0  0  0  0  0  0  0  0
    5.5981    0.6657    0.0000 C   0  0  0  0  0  0  0  0  0  0  0  0
    5.5981    1.6657    0.0000 C   0  0  0  0  0  0  0  0  0  0  0  0
    6.4641    2.1657    0.0000 C   0  0  0  0  0  0  0  0  0  0  0  0
    6.4641    3.1657    0.0000 C   0  0  0  0  0  0  0  0  0  0  0  0
    4.7320    2.1657    0.0000 C   0  0  0  0  0  0  0  0  0  0  0  0
    7.3580    1.6310    0.0000 C   0  0  0  0  0  0  0  0  0  0  0  0
    5.5981    3.6657    0.0000 C   0  0  0  0  0  0  0  0  0  0  0  0
    4.7320    3.1657    0.0000 C   0  0  0  0  0  0  0  0  0  0  0  0
    7.3580    3.7003    0.0000 C   0  0  0  0  0  0  0  0  0  0  0  0
    8.2641    2.1449    0.0000 C   0  0  0  0  0  0  0  0  0  0  0  0
    8.2641    3.1865    0.0000 C   0  0  0  0  0  0  0  0  0  0  0  0
    2.8395   -2.2354    0.0000 H   0  0  0  0  0  0  0  0  0  0  0  0
    1.8923   -2.2237    0.0000 H   0  0  0  0  0  0  0  0  0  0  0  0
    1.4174   -3.0464    0.0000 H   0  0  0  0  0  0  0  0  0  0  0  0
    2.0250   -4.0989    0.0000 H   0  0  0  0  0  0  0  0  0  0  0  0
    2.9750   -4.0989    0.0000 H   0  0  0  0  0  0  0  0  0  0  0  0
    3.3291   -1.0243    0.0000 H   0  0  0  0  0  0  0  0  0  0  0  0
    4.9441   -1.4169    0.0000 H   0  0  0  0  0  0  0  0  0  0  0  0
    5.3426   -0.7267    0.0000 H   0  0  0  0  0  0  0  0  0  0  0  0
    4.5200    0.7483    0.0000 H   0  0  0  0  0  0  0  0  0  0  0  0
    4.1215    0.0580    0.0000 H   0  0  0  0  0  0  0  0  0  0  0  0
    5.8101    0.0831    0.0000 H   0  0  0  0  0  0  0  0  0  0  0  0
    6.2087    0.7733    0.0000 H   0  0  0  0  0  0  0  0  0  0  0  0
    4.1951    1.8557    0.0000 H   0  0  0  0  0  0  0  0  0  0  0  0
    7.3509    1.0111    0.0000 H   0  0  0  0  0  0  0  0  0  0  0  0
    5.5981    4.2857    0.0000 H   0  0  0  0  0  0  0  0  0  0  0  0
    4.1951    3.4757    0.0000 H   0  0  0  0  0  0  0  0  0  0  0  0
    7.3509    4.3203    0.0000 H   0  0  0  0  0  0  0  0  0  0  0  0
    8.7998    1.8328    0.0000 H   0  0  0  0  0  0  0  0  0  0  0  0
    8.7998    3.4986    0.0000 H   0  0  0  0  0  0  0  0  0  0  0  0
  1  6  2  0  0  0  0
  2  6  1  0  0  0  0
  2  7  1  0  0  0  0
  2 25  1  0  0  0  0
  3  4  1  0  0  0  0
  3  5  1  0  0  0  0
  3  6  1  0  0  0  0
  3 20  1  0  0  0  0
  4  5  1  0  0  0  0
  4 21  1  0  0  0  0
  4 22  1  0  0  0  0
  5 23  1  0  0  0  0
  5 24  1  0  0  0  0
  7  8  1  0  0  0  0
  7 26  1  0  0  0  0
  7 27  1  0  0  0  0
  8  9  1  0  0  0  0
  8 28  1  0  0  0  0
  8 29  1  0  0  0  0
  9 10  1  0  0  0  0
  9 30  1  0  0  0  0
  9 31  1  0  0  0  0
 10 11  1  0  0  0  0
 10 13  2  0  0  0  0
 11 12  1  0  0  0  0
 11 14  2  0  0  0  0
 12 15  1  0  0  0  0
 12 17  2  0  0  0  0
 13 16  1  0  0  0  0
 13 32  1  0  0  0  0
 14 18  1  0  0  0  0
 14 33  1  0  0  0  0
 15 16  2  0  0  0  0
 15 34  1  0  0  0  0
 16 35  1  0  0  0  0
 17 19  1  0  0  0  0
 17 36  1  0  0  0  0
 18 19  2  0  0  0  0
 18 37  1  0  0  0  0
 19 38  1  0  0  0  0
M  END
> <PUBCHEM_COMPOUND_CID>
50874594

> <PUBCHEM_COMPOUND_CANONICALIZED>
1

> <PUBCHEM_CACTVS_COMPLEXITY>
310

> <PUBCHEM_CACTVS_HBOND_ACCEPTOR>
1

> <PUBCHEM_CACTVS_HBOND_DONOR>
1

> <PUBCHEM_CACTVS_ROTATABLE_BOND>
5

> <PUBCHEM_CACTVS_SUBSKEYS>
AAADceB6IAAAAAAAAAAAAAAAGAAAAAAAAAAwYAAAAAAAAADBUAAAHgAQAAAADQDBmAQwAMLAAACIAiFSEAACAAAgAAAIiIEIAIgIIDKAkRCEIAAglgCIiAcQgMAOgAACAAAQAAAAAAQAACAAAAAAAAAAAA==

> <PUBCHEM_IUPAC_OPENEYE_NAME>
N-[3-(1-naphthyl)propyl]cyclopropanecarboxamide

> <PUBCHEM_IUPAC_CAS_NAME>
N-[3-(1-naphthalenyl)propyl]cyclopropanecarboxamide

> <PUBCHEM_IUPAC_NAME>
N-(3-naphthalen-1-ylpropyl)cyclopropanecarboxamide

> <PUBCHEM_IUPAC_SYSTEMATIC_NAME>
N-(3-naphthalen-1-ylpropyl)cyclopropanecarboxamide

> <PUBCHEM_IUPAC_TRADITIONAL_NAME>
N-[3-(1-naphthyl)propyl]cyclopropanecarboxamide

> <PUBCHEM_IUPAC_INCHI>
InChI=1S/C17H19NO/c19-17(15-10-11-15)18-12-4-8-14-7-3-6-13-5-1-2-9-16(13)14/h1-3,5-7,9,15H,4,8,10-12H2,(H,18,19)

> <PUBCHEM_IUPAC_INCHIKEY>
LSINSIKNGBFLPC-UHFFFAOYSA-N

> <PUBCHEM_XLOGP3>
4

> <PUBCHEM_EXACT_MASS>
253.146664

> <PUBCHEM_MOLECULAR_FORMULA>
C17H19NO

> <PUBCHEM_MOLECULAR_WEIGHT>
253.33886

> <PUBCHEM_OPENEYE_CAN_SMILES>
C1CC1C(=O)NCCCC2=CC=CC3=CC=CC=C32

> <PUBCHEM_OPENEYE_ISO_SMILES>
C1CC1C(=O)NCCCC2=CC=CC3=CC=CC=C32

> <PUBCHEM_CACTVS_TPSA>
29.1

> <PUBCHEM_MONOISOTOPIC_WEIGHT>
253.146664

> <PUBCHEM_TOTAL_CHARGE>
0

> <PUBCHEM_HEAVY_ATOM_COUNT>
19

> <PUBCHEM_ATOM_DEF_STEREO_COUNT>
0

> <PUBCHEM_ATOM_UDEF_STEREO_COUNT>
0

> <PUBCHEM_BOND_DEF_STEREO_COUNT>
0

> <PUBCHEM_BOND_UDEF_STEREO_COUNT>
0

> <PUBCHEM_ISOTOPIC_ATOM_COUNT>
0

> <PUBCHEM_COMPONENT_COUNT>
1

> <PUBCHEM_CACTVS_TAUTO_COUNT>
2

> <PUBCHEM_COORDINATE_TYPE>
1
5
255

> <PUBCHEM_BONDANNOTATIONS>
10  11  8
10  13  8
11  12  8
11  14  8
12  15  8
12  17  8
13  16  8
14  18  8
15  16  8
17  19  8
18  19  8

$$$$
