38203620
  -OEChem-12041211532D

 42 45  0     0  0  0  0  0  0999 V2000
    8.3987   -0.7766    0.0000 O   0  0  0  0  0  0  0  0  0  0  0  0
    9.6814    0.3874    0.0000 N   0  0  0  0  0  0  0  0  0  0  0  0
    8.0321    0.9162    0.0000 N   0  0  0  0  0  0  0  0  0  0  0  0
   10.3534   -0.3532    0.0000 C   0  0  0  0  0  0  0  0  0  0  0  0
   10.1492   -1.3321    0.0000 C   0  0  0  0  0  0  0  0  0  0  0  0
   11.3475   -0.2448    0.0000 C   0  0  0  0  0  0  0  0  0  0  0  0
   11.0172   -1.8288    0.0000 C   0  0  0  0  0  0  0  0  0  0  0  0
   11.7577   -1.1568    0.0000 C   0  0  0  0  0  0  0  0  0  0  0  0
    5.3364    1.2410    0.0000 C   0  0  0  0  0  0  0  0  0  0  0  0
    4.5274    1.8288    0.0000 C   0  0  0  0  0  0  0  0  0  0  0  0
    8.7041    0.1757    0.0000 C   0  0  0  0  0  0  0  0  0  0  0  0
    5.0274    0.2899    0.0000 C   0  0  0  0  0  0  0  0  0  0  0  0
    3.7183    1.2410    0.0000 C   0  0  0  0  0  0  0  0  0  0  0  0
    4.0274    0.2899    0.0000 C   0  0  0  0  0  0  0  0  0  0  0  0
    7.0547    0.7046    0.0000 C   0  0  0  0  0  0  0  0  0  0  0  0
    6.3518    1.4733    0.0000 C   0  0  0  0  0  0  0  0  0  0  0  0
    5.7123   -0.4948    0.0000 C   0  0  0  0  0  0  0  0  0  0  0  0
    6.7328   -0.2861    0.0000 C   0  0  0  0  0  0  0  0  0  0  0  0
    2.7029    1.4733    0.0000 C   0  0  0  0  0  0  0  0  0  0  0  0
    3.3424   -0.4948    0.0000 C   0  0  0  0  0  0  0  0  0  0  0  0
    2.0000    0.7046    0.0000 C   0  0  0  0  0  0  0  0  0  0  0  0
    2.3219   -0.2861    0.0000 C   0  0  0  0  0  0  0  0  0  0  0  0
   10.5733    0.2265    0.0000 H   0  0  0  0  0  0  0  0  0  0  0  0
    9.5589   -1.1428    0.0000 H   0  0  0  0  0  0  0  0  0  0  0  0
    9.8993   -1.8995    0.0000 H   0  0  0  0  0  0  0  0  0  0  0  0
   11.9364   -0.0510    0.0000 H   0  0  0  0  0  0  0  0  0  0  0  0
   11.2162    0.3611    0.0000 H   0  0  0  0  0  0  0  0  0  0  0  0
   10.6547   -2.3318    0.0000 H   0  0  0  0  0  0  0  0  0  0  0  0
   11.4795   -2.2419    0.0000 H   0  0  0  0  0  0  0  0  0  0  0  0
   12.1241   -1.6570    0.0000 H   0  0  0  0  0  0  0  0  0  0  0  0
   12.2935   -0.8447    0.0000 H   0  0  0  0  0  0  0  0  0  0  0  0
    9.8707    0.9778    0.0000 H   0  0  0  0  0  0  0  0  0  0  0  0
    4.9422    2.2895    0.0000 H   0  0  0  0  0  0  0  0  0  0  0  0
    4.1125    2.2895    0.0000 H   0  0  0  0  0  0  0  0  0  0  0  0
    6.5365    2.0651    0.0000 H   0  0  0  0  0  0  0  0  0  0  0  0
    8.2214    1.5066    0.0000 H   0  0  0  0  0  0  0  0  0  0  0  0
    5.5139   -1.0822    0.0000 H   0  0  0  0  0  0  0  0  0  0  0  0
    7.1459   -0.7484    0.0000 H   0  0  0  0  0  0  0  0  0  0  0  0
    2.5182    2.0651    0.0000 H   0  0  0  0  0  0  0  0  0  0  0  0
    3.5408   -1.0822    0.0000 H   0  0  0  0  0  0  0  0  0  0  0  0
    1.3941    0.8358    0.0000 H   0  0  0  0  0  0  0  0  0  0  0  0
    1.9088   -0.7484    0.0000 H   0  0  0  0  0  0  0  0  0  0  0  0
  1 11  2  0  0  0  0
  2  4  1  0  0  0  0
  2 11  1  0  0  0  0
  2 32  1  0  0  0  0
  3 11  1  0  0  0  0
  3 15  1  0  0  0  0
  3 36  1  0  0  0  0
  4  5  1  0  0  0  0
  4  6  1  0  0  0  0
  4 23  1  0  0  0  0
  5  7  1  0  0  0  0
  5 24  1  0  0  0  0
  5 25  1  0  0  0  0
  6  8  1  0  0  0  0
  6 26  1  0  0  0  0
  6 27  1  0  0  0  0
  7  8  1  0  0  0  0
  7 28  1  0  0  0  0
  7 29  1  0  0  0  0
  8 30  1  0  0  0  0
  8 31  1  0  0  0  0
  9 10  1  0  0  0  0
  9 12  2  0  0  0  0
  9 16  1  0  0  0  0
 10 13  1  0  0  0  0
 10 33  1  0  0  0  0
 10 34  1  0  0  0  0
 12 14  1  0  0  0  0
 12 17  1  0  0  0  0
 13 14  1  0  0  0  0
 13 19  2  0  0  0  0
 14 20  2  0  0  0  0
 15 16  2  0  0  0  0
 15 18  1  0  0  0  0
 16 35  1  0  0  0  0
 17 18  2  0  0  0  0
 17 37  1  0  0  0  0
 18 38  1  0  0  0  0
 19 21  1  0  0  0  0
 19 39  1  0  0  0  0
 20 22  1  0  0  0  0
 20 40  1  0  0  0  0
 21 22  2  0  0  0  0
 21 41  1  0  0  0  0
 22 42  1  0  0  0  0
M  END
> <PUBCHEM_COMPOUND_CID>
38203620

> <PUBCHEM_COMPOUND_CANONICALIZED>
1

> <PUBCHEM_CACTVS_COMPLEXITY>
404

> <PUBCHEM_CACTVS_HBOND_ACCEPTOR>
1

> <PUBCHEM_CACTVS_HBOND_DONOR>
2

> <PUBCHEM_CACTVS_ROTATABLE_BOND>
2

> <PUBCHEM_CACTVS_SUBSKEYS>
AAADceB7IAAAAAAAAAAAAAAAAAAAAYMAAAAwYAAAAAAAAGABQAAAHgAQAAAADCjBGAQxwILAAACIAiRCUACCAAAhAgAIiIAIZIiIICLAkZGEIAholgJIyCcQgMAOiAAAQAAQAAAQAACAACAAAQAACAAAAA==

> <PUBCHEM_IUPAC_OPENEYE_NAME>
1-cyclopentyl-3-(9H-fluoren-2-yl)urea

> <PUBCHEM_IUPAC_CAS_NAME>
1-cyclopentyl-3-(9H-fluoren-2-yl)urea

> <PUBCHEM_IUPAC_NAME>
1-cyclopentyl-3-(9H-fluoren-2-yl)urea

> <PUBCHEM_IUPAC_SYSTEMATIC_NAME>
1-cyclopentyl-3-(9H-fluoren-2-yl)urea

> <PUBCHEM_IUPAC_TRADITIONAL_NAME>
1-cyclopentyl-3-(9H-fluoren-2-yl)urea

> <PUBCHEM_IUPAC_INCHI>
InChI=1S/C19H20N2O/c22-19(20-15-6-2-3-7-15)21-16-9-10-18-14(12-16)11-13-5-1-4-8-17(13)18/h1,4-5,8-10,12,15H,2-3,6-7,11H2,(H2,20,21,22)

> <PUBCHEM_IUPAC_INCHIKEY>
JRDDPVJINYCODK-UHFFFAOYSA-N

> <PUBCHEM_XLOGP3>
4.7

> <PUBCHEM_EXACT_MASS>
292.157563

> <PUBCHEM_MOLECULAR_FORMULA>
C19H20N2O

> <PUBCHEM_MOLECULAR_WEIGHT>
292.3749

> <PUBCHEM_OPENEYE_CAN_SMILES>
C1CCC(C1)NC(=O)NC2=CC3=C(C=C2)C4=CC=CC=C4C3

> <PUBCHEM_OPENEYE_ISO_SMILES>
C1CCC(C1)NC(=O)NC2=CC3=C(C=C2)C4=CC=CC=C4C3

> <PUBCHEM_CACTVS_TPSA>
41.1

> <PUBCHEM_MONOISOTOPIC_WEIGHT>
292.157563

> <PUBCHEM_TOTAL_CHARGE>
0

> <PUBCHEM_HEAVY_ATOM_COUNT>
22

> <PUBCHEM_ATOM_DEF_STEREO_COUNT>
0

> <PUBCHEM_ATOM_UDEF_STEREO_COUNT>
0

> <PUBCHEM_BOND_DEF_STEREO_COUNT>
0

> <PUBCHEM_BOND_UDEF_STEREO_COUNT>
0

> <PUBCHEM_ISOTOPIC_ATOM_COUNT>
0

> <PUBCHEM_COMPONENT_COUNT>
1

> <PUBCHEM_CACTVS_TAUTO_COUNT>
3

> <PUBCHEM_COORDINATE_TYPE>
1
5
255

> <PUBCHEM_BONDANNOTATIONS>
12  17  8
13  14  8
13  19  8
14  20  8
15  16  8
15  18  8
17  18  8
19  21  8
20  22  8
21  22  8
9  12  8
9  16  8

$$$$
38220591
  -OEChem-12041211532D

 33 34  0     0  0  0  0  0  0999 V2000
    6.8671    0.3038    0.0000 O   0  0  0  0  0  0  0  0  0  0  0  0
    6.0010    1.8038    0.0000 N   0  0  0  0  0  0  0  0  0  0  0  0
    5.1350    0.3038    0.0000 N   0  0  0  0  0  0  0  0  0  0  0  0
    6.8671    2.3038    0.0000 C   0  0  0  0  0  0  0  0  0  0  0  0
    7.7806    1.8970    0.0000 C   0  0  0  0  0  0  0  0  0  0  0  0
    6.9716    3.2983    0.0000 C   0  0  0  0  0  0  0  0  0  0  0  0
    8.4497    2.6402    0.0000 C   0  0  0  0  0  0  0  0  0  0  0  0
    7.9497    3.5062    0.0000 C   0  0  0  0  0  0  0  0  0  0  0  0
    6.0010    0.8038    0.0000 C   0  0  0  0  0  0  0  0  0  0  0  0
    5.1350   -0.6962    0.0000 C   0  0  0  0  0  0  0  0  0  0  0  0
    4.2690   -1.1962    0.0000 C   0  0  0  0  0  0  0  0  0  0  0  0
    6.0010   -1.1962    0.0000 C   0  0  0  0  0  0  0  0  0  0  0  0
    4.2690   -2.1962    0.0000 C   0  0  0  0  0  0  0  0  0  0  0  0
    6.0010   -2.1962    0.0000 C   0  0  0  0  0  0  0  0  0  0  0  0
    5.1350   -2.6962    0.0000 C   0  0  0  0  0  0  0  0  0  0  0  0
    3.4030   -2.6962    0.0000 C   0  0  0  0  0  0  0  0  0  0  0  0
    2.5369   -3.1962    0.0000 C   0  0  0  0  0  0  0  0  0  0  0  0
    6.3471    2.6415    0.0000 H   0  0  0  0  0  0  0  0  0  0  0  0
    7.4706    1.3601    0.0000 H   0  0  0  0  0  0  0  0  0  0  0  0
    8.2822    1.5326    0.0000 H   0  0  0  0  0  0  0  0  0  0  0  0
    6.9068    3.9149    0.0000 H   0  0  0  0  0  0  0  0  0  0  0  0
    6.3516    3.2983    0.0000 H   0  0  0  0  0  0  0  0  0  0  0  0
    8.8646    2.1794    0.0000 H   0  0  0  0  0  0  0  0  0  0  0  0
    8.9513    3.0046    0.0000 H   0  0  0  0  0  0  0  0  0  0  0  0
    8.5161    3.7584    0.0000 H   0  0  0  0  0  0  0  0  0  0  0  0
    7.7582    4.0959    0.0000 H   0  0  0  0  0  0  0  0  0  0  0  0
    5.4641    2.1138    0.0000 H   0  0  0  0  0  0  0  0  0  0  0  0
    4.5981    0.6138    0.0000 H   0  0  0  0  0  0  0  0  0  0  0  0
    3.7320   -0.8862    0.0000 H   0  0  0  0  0  0  0  0  0  0  0  0
    6.5380   -0.8862    0.0000 H   0  0  0  0  0  0  0  0  0  0  0  0
    6.5380   -2.5062    0.0000 H   0  0  0  0  0  0  0  0  0  0  0  0
    5.1350   -3.3162    0.0000 H   0  0  0  0  0  0  0  0  0  0  0  0
    2.0000   -3.5062    0.0000 H   0  0  0  0  0  0  0  0  0  0  0  0
  1  9  2  0  0  0  0
  2  4  1  0  0  0  0
  2  9  1  0  0  0  0
  2 27  1  0  0  0  0
  3  9  1  0  0  0  0
  3 10  1  0  0  0  0
  3 28  1  0  0  0  0
  4  5  1  0  0  0  0
  4  6  1  0  0  0  0
  4 18  1  0  0  0  0
  5  7  1  0  0  0  0
  5 19  1  0  0  0  0
  5 20  1  0  0  0  0
  6  8  1  0  0  0  0
  6 21  1  0  0  0  0
  6 22  1  0  0  0  0
  7  8  1  0  0  0  0
  7 23  1  0  0  0  0
  7 24  1  0  0  0  0
  8 25  1  0  0  0  0
  8 26  1  0  0  0  0
 10 11  1  0  0  0  0
 10 12  2  0  0  0  0
 11 13  2  0  0  0  0
 11 29  1  0  0  0  0
 12 14  1  0  0  0  0
 12 30  1  0  0  0  0
 13 15  1  0  0  0  0
 13 16  1  0  0  0  0
 14 15  2  0  0  0  0
 14 31  1  0  0  0  0
 15 32  1  0  0  0  0
 16 17  3  0  0  0  0
 17 33  1  0  0  0  0
M  END
> <PUBCHEM_COMPOUND_CID>
38220591

> <PUBCHEM_COMPOUND_CANONICALIZED>
1

> <PUBCHEM_CACTVS_COMPLEXITY>
311

> <PUBCHEM_CACTVS_HBOND_ACCEPTOR>
1

> <PUBCHEM_CACTVS_HBOND_DONOR>
2

> <PUBCHEM_CACTVS_ROTATABLE_BOND>
3

> <PUBCHEM_CACTVS_SUBSKEYS>
AAADceBzIAAAAAAAAAAAAAAAAAAAAYAAAAAwAAAAAAAAAAABAAAAHgAQAAAADCjBGAQxwILAAADIGiRCUAiCAAAhAgAIiIAIZIiIICLAkZGEIAholgJIyCcQgAAOAAAAQAAAAAAAAACAAAAAAAAAAAAAAA==

> <PUBCHEM_IUPAC_OPENEYE_NAME>
1-cyclopentyl-3-(3-ethynylphenyl)urea

> <PUBCHEM_IUPAC_CAS_NAME>
1-cyclopentyl-3-(3-ethynylphenyl)urea

> <PUBCHEM_IUPAC_NAME>
1-cyclopentyl-3-(3-ethynylphenyl)urea

> <PUBCHEM_IUPAC_SYSTEMATIC_NAME>
1-cyclopentyl-3-(3-ethynylphenyl)urea

> <PUBCHEM_IUPAC_TRADITIONAL_NAME>
1-cyclopentyl-3-(3-ethynylphenyl)urea

> <PUBCHEM_IUPAC_INCHI>
InChI=1S/C14H16N2O/c1-2-11-6-5-9-13(10-11)16-14(17)15-12-7-3-4-8-12/h1,5-6,9-10,12H,3-4,7-8H2,(H2,15,16,17)

> <PUBCHEM_IUPAC_INCHIKEY>
ZNJIOQUVIQRYFX-UHFFFAOYSA-N

> <PUBCHEM_XLOGP3>
2.9

> <PUBCHEM_EXACT_MASS>
228.126263

> <PUBCHEM_MOLECULAR_FORMULA>
C14H16N2O

> <PUBCHEM_MOLECULAR_WEIGHT>
228.28964

> <PUBCHEM_OPENEYE_CAN_SMILES>
C#CC1=CC(=CC=C1)NC(=O)NC2CCCC2

> <PUBCHEM_OPENEYE_ISO_SMILES>
C#CC1=CC(=CC=C1)NC(=O)NC2CCCC2

> <PUBCHEM_CACTVS_TPSA>
41.1

> <PUBCHEM_MONOISOTOPIC_WEIGHT>
228.126263

> <PUBCHEM_TOTAL_CHARGE>
0

> <PUBCHEM_HEAVY_ATOM_COUNT>
17

> <PUBCHEM_ATOM_DEF_STEREO_COUNT>
0

> <PUBCHEM_ATOM_UDEF_STEREO_COUNT>
0

> <PUBCHEM_BOND_DEF_STEREO_COUNT>
0

> <PUBCHEM_BOND_UDEF_STEREO_COUNT>
0

> <PUBCHEM_ISOTOPIC_ATOM_COUNT>
0

> <PUBCHEM_COMPONENT_COUNT>
1

> <PUBCHEM_CACTVS_TAUTO_COUNT>
3

> <PUBCHEM_COORDINATE_TYPE>
1
5
255

> <PUBCHEM_BONDANNOTATIONS>
10  11  8
10  12  8
11  13  8
12  14  8
13  15  8
14  15  8

$$$$
