40002039
  -OEChem-11301217472D

 51 53  0     0  0  0  0  0  0999 V2000
    4.3211    0.2745    0.0000 O   0  0  0  0  0  0  0  0  0  0  0  0
   10.5028    2.4623    0.0000 N   0  3  0  0  0  0  0  0  0  0  0  0
    5.9674   -0.2636    0.0000 N   0  0  0  0  0  0  0  0  0  0  0  0
    4.6783   -3.0298    0.0000 N   0  0  0  0  0  0  0  0  0  0  0  0
   10.1921    1.5118    0.0000 C   0  0  0  0  0  0  0  0  0  0  0  0
   10.8134    3.4129    0.0000 C   0  0  0  0  0  0  0  0  0  0  0  0
   11.4533    2.1517    0.0000 C   0  0  0  0  0  0  0  0  0  0  0  0
    9.2136    1.3056    0.0000 C   0  0  0  0  0  0  0  0  0  0  0  0
   11.6595    1.1732    0.0000 C   0  0  0  0  0  0  0  0  0  0  0  0
   11.7920    3.6191    0.0000 C   0  0  0  0  0  0  0  0  0  0  0  0
    8.5458    2.0499    0.0000 C   0  0  0  0  0  0  0  0  0  0  0  0
    8.9030    0.3551    0.0000 C   0  0  0  0  0  0  0  0  0  0  0  0
    7.2566    0.8932    0.0000 C   0  0  0  0  0  0  0  0  0  0  0  0
    7.5673    1.8437    0.0000 C   0  0  0  0  0  0  0  0  0  0  0  0
    7.9244    0.1489    0.0000 C   0  0  0  0  0  0  0  0  0  0  0  0
    6.2781    0.6870    0.0000 C   0  0  0  0  0  0  0  0  0  0  0  0
    4.6783   -1.4203    0.0000 C   0  0  0  0  0  0  0  0  0  0  0  0
    3.7320   -1.7250    0.0000 C   0  0  0  0  0  0  0  0  0  0  0  0
    3.7320   -2.7250    0.0000 C   0  0  0  0  0  0  0  0  0  0  0  0
    4.9889   -0.4698    0.0000 C   0  0  0  0  0  0  0  0  0  0  0  0
    5.2619   -2.2250    0.0000 C   0  0  0  0  0  0  0  0  0  0  0  0
    2.8660   -1.2250    0.0000 C   0  0  0  0  0  0  0  0  0  0  0  0
    2.8660   -3.2250    0.0000 C   0  0  0  0  0  0  0  0  0  0  0  0
    2.0000   -1.7250    0.0000 C   0  0  0  0  0  0  0  0  0  0  0  0
    2.0000   -2.7250    0.0000 C   0  0  0  0  0  0  0  0  0  0  0  0
    9.9135    2.6550    0.0000 H   0  0  0  0  0  0  0  0  0  0  0  0
   10.2127    0.8922    0.0000 H   0  0  0  0  0  0  0  0  0  0  0  0
   10.8059    1.4245    0.0000 H   0  0  0  0  0  0  0  0  0  0  0  0
   10.7929    4.0325    0.0000 H   0  0  0  0  0  0  0  0  0  0  0  0
   10.1996    3.5002    0.0000 H   0  0  0  0  0  0  0  0  0  0  0  0
   12.0730    2.1722    0.0000 H   0  0  0  0  0  0  0  0  0  0  0  0
   11.5407    2.7655    0.0000 H   0  0  0  0  0  0  0  0  0  0  0  0
   11.0529    1.0453    0.0000 H   0  0  0  0  0  0  0  0  0  0  0  0
   11.9198    3.0124    0.0000 H   0  0  0  0  0  0  0  0  0  0  0  0
   12.3986    3.7470    0.0000 H   0  0  0  0  0  0  0  0  0  0  0  0
   11.6641    4.2258    0.0000 H   0  0  0  0  0  0  0  0  0  0  0  0
   11.7874    0.5665    0.0000 H   0  0  0  0  0  0  0  0  0  0  0  0
   12.2662    1.3010    0.0000 H   0  0  0  0  0  0  0  0  0  0  0  0
    8.7384    2.6392    0.0000 H   0  0  0  0  0  0  0  0  0  0  0  0
    9.3170   -0.1064    0.0000 H   0  0  0  0  0  0  0  0  0  0  0  0
    7.1532    2.3052    0.0000 H   0  0  0  0  0  0  0  0  0  0  0  0
    7.7318   -0.4404    0.0000 H   0  0  0  0  0  0  0  0  0  0  0  0
    6.2575    1.3066    0.0000 H   0  0  0  0  0  0  0  0  0  0  0  0
    5.6643    0.7743    0.0000 H   0  0  0  0  0  0  0  0  0  0  0  0
    6.3815   -0.7250    0.0000 H   0  0  0  0  0  0  0  0  0  0  0  0
    5.8819   -2.2250    0.0000 H   0  0  0  0  0  0  0  0  0  0  0  0
    4.8709   -3.6191    0.0000 H   0  0  0  0  0  0  0  0  0  0  0  0
    2.8660   -0.6050    0.0000 H   0  0  0  0  0  0  0  0  0  0  0  0
    2.8660   -3.8450    0.0000 H   0  0  0  0  0  0  0  0  0  0  0  0
    1.4631   -1.4150    0.0000 H   0  0  0  0  0  0  0  0  0  0  0  0
    1.4631   -3.0350    0.0000 H   0  0  0  0  0  0  0  0  0  0  0  0
  1 20  2  0  0  0  0
  2  5  1  0  0  0  0
  2  6  1  0  0  0  0
  2  7  1  0  0  0  0
  2 26  1  0  0  0  0
  3 16  1  0  0  0  0
  3 20  1  0  0  0  0
  3 45  1  0  0  0  0
  4 19  1  0  0  0  0
  4 21  1  0  0  0  0
  4 47  1  0  0  0  0
  5  8  1  0  0  0  0
  5 27  1  0  0  0  0
  5 28  1  0  0  0  0
  6 10  1  0  0  0  0
  6 29  1  0  0  0  0
  6 30  1  0  0  0  0
  7  9  1  0  0  0  0
  7 31  1  0  0  0  0
  7 32  1  0  0  0  0
  8 11  2  0  0  0  0
  8 12  1  0  0  0  0
  9 33  1  0  0  0  0
  9 37  1  0  0  0  0
  9 38  1  0  0  0  0
 10 34  1  0  0  0  0
 10 35  1  0  0  0  0
 10 36  1  0  0  0  0
 11 14  1  0  0  0  0
 11 39  1  0  0  0  0
 12 15  2  0  0  0  0
 12 40  1  0  0  0  0
 13 14  2  0  0  0  0
 13 15  1  0  0  0  0
 13 16  1  0  0  0  0
 14 41  1  0  0  0  0
 15 42  1  0  0  0  0
 16 43  1  0  0  0  0
 16 44  1  0  0  0  0
 17 18  1  0  0  0  0
 17 20  1  0  0  0  0
 17 21  2  0  0  0  0
 18 19  1  0  0  0  0
 18 22  2  0  0  0  0
 19 23  2  0  0  0  0
 21 46  1  0  0  0  0
 22 24  1  0  0  0  0
 22 48  1  0  0  0  0
 23 25  1  0  0  0  0
 23 49  1  0  0  0  0
 24 25  2  0  0  0  0
 24 50  1  0  0  0  0
 25 51  1  0  0  0  0
M  CHG  1   2   1
M  END
> <PUBCHEM_COMPOUND_CID>
40002039

> <PUBCHEM_COMPOUND_CANONICALIZED>
1

> <PUBCHEM_CACTVS_COMPLEXITY>
415

> <PUBCHEM_CACTVS_HBOND_ACCEPTOR>
1

> <PUBCHEM_CACTVS_HBOND_DONOR>
3

> <PUBCHEM_CACTVS_ROTATABLE_BOND>
7

> <PUBCHEM_CACTVS_SUBSKEYS>
AAADceB7IAAAAAAAAAAAAAAAAAAAAWAAAAAwYAAAAAAAAFgB9AAAHgAQAAAADAjBngQ+wPPJkACoAzV3VACCgCA1AiAI2aE4ZNgIIPrA1ZGEIYhglgDIyccciMCOwAAAAAACAACAAAAAAAQAAAAAAAAAAA==

> <PUBCHEM_IUPAC_OPENEYE_NAME>
diethyl-[[4-[(1H-indole-3-carbonylamino)methyl]phenyl]methyl]ammonium

> <PUBCHEM_IUPAC_CAS_NAME>
diethyl-[[4-[[[1H-indol-3-yl(oxo)methyl]amino]methyl]phenyl]methyl]ammonium

> <PUBCHEM_IUPAC_NAME>
diethyl-[[4-[(1H-indole-3-carbonylamino)methyl]phenyl]methyl]azanium

> <PUBCHEM_IUPAC_SYSTEMATIC_NAME>
diethyl-[[4-[(1H-indol-3-ylcarbonylamino)methyl]phenyl]methyl]azanium

> <PUBCHEM_IUPAC_TRADITIONAL_NAME>
diethyl-[4-[(1H-indole-3-carbonylamino)methyl]benzyl]ammonium

> <PUBCHEM_IUPAC_INCHI>
InChI=1S/C21H25N3O/c1-3-24(4-2)15-17-11-9-16(10-12-17)13-23-21(25)19-14-22-20-8-6-5-7-18(19)20/h5-12,14,22H,3-4,13,15H2,1-2H3,(H,23,25)/p+1

> <PUBCHEM_IUPAC_INCHIKEY>
WRIVNVLWSIOJFT-UHFFFAOYSA-O

> <PUBCHEM_XLOGP3>
3.8

> <PUBCHEM_EXACT_MASS>
336.207587

> <PUBCHEM_MOLECULAR_FORMULA>
C21H26N3O+

> <PUBCHEM_MOLECULAR_WEIGHT>
336.45064

> <PUBCHEM_OPENEYE_CAN_SMILES>
CC[NH+](CC)CC1=CC=C(C=C1)CNC(=O)C2=CNC3=CC=CC=C32

> <PUBCHEM_OPENEYE_ISO_SMILES>
CC[NH+](CC)CC1=CC=C(C=C1)CNC(=O)C2=CNC3=CC=CC=C32

> <PUBCHEM_CACTVS_TPSA>
49.3

> <PUBCHEM_MONOISOTOPIC_WEIGHT>
336.207587

> <PUBCHEM_TOTAL_CHARGE>
1

> <PUBCHEM_HEAVY_ATOM_COUNT>
25

> <PUBCHEM_ATOM_DEF_STEREO_COUNT>
0

> <PUBCHEM_ATOM_UDEF_STEREO_COUNT>
0

> <PUBCHEM_BOND_DEF_STEREO_COUNT>
0

> <PUBCHEM_BOND_UDEF_STEREO_COUNT>
0

> <PUBCHEM_ISOTOPIC_ATOM_COUNT>
0

> <PUBCHEM_COMPONENT_COUNT>
1

> <PUBCHEM_CACTVS_TAUTO_COUNT>
5

> <PUBCHEM_COORDINATE_TYPE>
1
5
255

> <PUBCHEM_BONDANNOTATIONS>
11  14  8
12  15  8
13  14  8
13  15  8
17  18  8
17  21  8
18  19  8
18  22  8
19  23  8
22  24  8
23  25  8
24  25  8
4  19  8
4  21  8
8  11  8
8  12  8

$$$$
40010137
  -OEChem-11301217472D

 48 50  0     1  0  0  0  0  0999 V2000
    7.1962   -0.3660    0.0000 O   0  0  0  0  0  0  0  0  0  0  0  0
    7.1962    1.6340    0.0000 N   0  3  3  0  0  0  0  0  0  0  0  0
    5.4641   -0.3660    0.0000 N   0  0  0  0  0  0  0  0  0  0  0  0
    8.0622    2.1340    0.0000 C   0  0  0  0  0  0  0  0  0  0  0  0
    9.0622    2.1340    0.0000 C   0  0  0  0  0  0  0  0  0  0  0  0
    8.5622    3.0000    0.0000 C   0  0  0  0  0  0  0  0  0  0  0  0
    6.6962    2.5000    0.0000 C   0  0  0  0  0  0  0  0  0  0  0  0
    6.3301    1.1340    0.0000 C   0  0  0  0  0  0  0  0  0  0  0  0
    7.1962    3.3660    0.0000 C   0  0  0  0  0  0  0  0  0  0  0  0
    5.6962    2.5000    0.0000 C   0  0  0  0  0  0  0  0  0  0  0  0
    6.3301    0.1340    0.0000 C   0  0  0  0  0  0  0  0  0  0  0  0
    5.4641   -1.3660    0.0000 C   0  0  0  0  0  0  0  0  0  0  0  0
    4.5981   -1.8660    0.0000 C   0  0  0  0  0  0  0  0  0  0  0  0
    6.3301   -1.8660    0.0000 C   0  0  0  0  0  0  0  0  0  0  0  0
    3.7320   -1.3660    0.0000 C   0  0  0  0  0  0  0  0  0  0  0  0
    4.5981   -2.8660    0.0000 C   0  0  0  0  0  0  0  0  0  0  0  0
    6.3301   -2.8660    0.0000 C   0  0  0  0  0  0  0  0  0  0  0  0
    5.4641   -3.3660    0.0000 C   0  0  0  0  0  0  0  0  0  0  0  0
    3.7320   -0.3660    0.0000 C   0  0  0  0  0  0  0  0  0  0  0  0
    2.8660   -1.8660    0.0000 C   0  0  0  0  0  0  0  0  0  0  0  0
    2.8660    0.1340    0.0000 C   0  0  0  0  0  0  0  0  0  0  0  0
    2.0000   -1.3660    0.0000 C   0  0  0  0  0  0  0  0  0  0  0  0
    2.0000   -0.3660    0.0000 C   0  0  0  0  0  0  0  0  0  0  0  0
    8.2226    1.5351    0.0000 H   0  0  0  0  0  0  0  0  0  0  0  0
    9.1698    1.5234    0.0000 H   0  0  0  0  0  0  0  0  0  0  0  0
    9.6448    2.3460    0.0000 H   0  0  0  0  0  0  0  0  0  0  0  0
    9.0371    3.3985    0.0000 H   0  0  0  0  0  0  0  0  0  0  0  0
    8.0872    3.3985    0.0000 H   0  0  0  0  0  0  0  0  0  0  0  0
    7.5062    1.0970    0.0000 H   0  0  0  0  0  0  0  0  0  0  0  0
    7.3162    2.5000    0.0000 H   0  0  0  0  0  0  0  0  0  0  0  0
    6.1181    1.7166    0.0000 H   0  0  0  0  0  0  0  0  0  0  0  0
    5.7196    1.0263    0.0000 H   0  0  0  0  0  0  0  0  0  0  0  0
    7.7331    3.0560    0.0000 H   0  0  0  0  0  0  0  0  0  0  0  0
    7.5062    3.9030    0.0000 H   0  0  0  0  0  0  0  0  0  0  0  0
    6.6592    3.6760    0.0000 H   0  0  0  0  0  0  0  0  0  0  0  0
    5.6962    3.1200    0.0000 H   0  0  0  0  0  0  0  0  0  0  0  0
    5.0762    2.5000    0.0000 H   0  0  0  0  0  0  0  0  0  0  0  0
    5.6962    1.8800    0.0000 H   0  0  0  0  0  0  0  0  0  0  0  0
    4.9272   -0.0560    0.0000 H   0  0  0  0  0  0  0  0  0  0  0  0
    6.8671   -1.5560    0.0000 H   0  0  0  0  0  0  0  0  0  0  0  0
    4.0611   -3.1760    0.0000 H   0  0  0  0  0  0  0  0  0  0  0  0
    6.8671   -3.1760    0.0000 H   0  0  0  0  0  0  0  0  0  0  0  0
    5.4641   -3.9860    0.0000 H   0  0  0  0  0  0  0  0  0  0  0  0
    4.2690   -0.0560    0.0000 H   0  0  0  0  0  0  0  0  0  0  0  0
    2.8660   -2.4860    0.0000 H   0  0  0  0  0  0  0  0  0  0  0  0
    2.8660    0.7540    0.0000 H   0  0  0  0  0  0  0  0  0  0  0  0
    1.4631   -1.6760    0.0000 H   0  0  0  0  0  0  0  0  0  0  0  0
    1.4631   -0.0560    0.0000 H   0  0  0  0  0  0  0  0  0  0  0  0
  1 11  2  0  0  0  0
  2  4  1  0  0  0  0
  2  7  1  0  0  0  0
  2  8  1  0  0  0  0
  2 29  1  0  0  0  0
  3 11  1  0  0  0  0
  3 12  1  0  0  0  0
  3 39  1  0  0  0  0
  4  5  1  0  0  0  0
  4  6  1  0  0  0  0
  4 24  1  0  0  0  0
  5  6  1  0  0  0  0
  5 25  1  0  0  0  0
  5 26  1  0  0  0  0
  6 27  1  0  0  0  0
  6 28  1  0  0  0  0
  7  9  1  0  0  0  0
  7 10  1  0  0  0  0
  7 30  1  0  0  0  0
  8 11  1  0  0  0  0
  8 31  1  0  0  0  0
  8 32  1  0  0  0  0
  9 33  1  0  0  0  0
  9 34  1  0  0  0  0
  9 35  1  0  0  0  0
 10 36  1  0  0  0  0
 10 37  1  0  0  0  0
 10 38  1  0  0  0  0
 12 13  1  0  0  0  0
 12 14  2  0  0  0  0
 13 15  1  0  0  0  0
 13 16  2  0  0  0  0
 14 17  1  0  0  0  0
 14 40  1  0  0  0  0
 15 19  2  0  0  0  0
 15 20  1  0  0  0  0
 16 18  1  0  0  0  0
 16 41  1  0  0  0  0
 17 18  2  0  0  0  0
 17 42  1  0  0  0  0
 18 43  1  0  0  0  0
 19 21  1  0  0  0  0
 19 44  1  0  0  0  0
 20 22  2  0  0  0  0
 20 45  1  0  0  0  0
 21 23  2  0  0  0  0
 21 46  1  0  0  0  0
 22 23  1  0  0  0  0
 22 47  1  0  0  0  0
 23 48  1  0  0  0  0
M  CHG  1   2   1
M  END
> <PUBCHEM_COMPOUND_CID>
40010137

> <PUBCHEM_COMPOUND_CANONICALIZED>
1

> <PUBCHEM_CACTVS_COMPLEXITY>
385

> <PUBCHEM_CACTVS_HBOND_ACCEPTOR>
1

> <PUBCHEM_CACTVS_HBOND_DONOR>
2

> <PUBCHEM_CACTVS_ROTATABLE_BOND>
6

> <PUBCHEM_CACTVS_SUBSKEYS>
AAADceB7IAAAAAAAAAAAAAAAGAAAAAAAAAAwYAAAAAAAAAABQAAAHgAQAAAADCjBmAQywIPAAACIAiVSUACCAAAhAgAIiICIZIgIYCLAkbGUIAhglADIyAcQgMAOgAAAAAACAAAAAAAAAAQAAAAAAAAAAA==

> <PUBCHEM_IUPAC_OPENEYE_NAME>
cyclopropyl-isopropyl-[2-oxo-2-(2-phenylanilino)ethyl]ammonium

> <PUBCHEM_IUPAC_CAS_NAME>
cyclopropyl-[2-oxo-2-(2-phenylanilino)ethyl]-propan-2-ylammonium

> <PUBCHEM_IUPAC_NAME>
cyclopropyl-[2-oxo-2-(2-phenylanilino)ethyl]-propan-2-ylazanium

> <PUBCHEM_IUPAC_SYSTEMATIC_NAME>
cyclopropyl-[2-oxidanylidene-2-[(2-phenylphenyl)amino]ethyl]-propan-2-yl-azanium

> <PUBCHEM_IUPAC_TRADITIONAL_NAME>
cyclopropyl-isopropyl-[2-keto-2-(2-phenylanilino)ethyl]ammonium

> <PUBCHEM_IUPAC_INCHI>
InChI=1S/C20H24N2O/c1-15(2)22(17-12-13-17)14-20(23)21-19-11-7-6-10-18(19)16-8-4-3-5-9-16/h3-11,15,17H,12-14H2,1-2H3,(H,21,23)/p+1

> <PUBCHEM_IUPAC_INCHIKEY>
KHEFEYGZOZZCEB-UHFFFAOYSA-O

> <PUBCHEM_XLOGP3>
3.4

> <PUBCHEM_EXACT_MASS>
309.196688

> <PUBCHEM_MOLECULAR_FORMULA>
C20H25N2O+

> <PUBCHEM_MOLECULAR_WEIGHT>
309.4253

> <PUBCHEM_OPENEYE_CAN_SMILES>
CC(C)[NH+](CC(=O)NC1=CC=CC=C1C2=CC=CC=C2)C3CC3

> <PUBCHEM_OPENEYE_ISO_SMILES>
CC(C)[NH+](CC(=O)NC1=CC=CC=C1C2=CC=CC=C2)C3CC3

> <PUBCHEM_CACTVS_TPSA>
33.5

> <PUBCHEM_MONOISOTOPIC_WEIGHT>
309.196688

> <PUBCHEM_TOTAL_CHARGE>
1

> <PUBCHEM_HEAVY_ATOM_COUNT>
23

> <PUBCHEM_ATOM_DEF_STEREO_COUNT>
0

> <PUBCHEM_ATOM_UDEF_STEREO_COUNT>
0

> <PUBCHEM_BOND_DEF_STEREO_COUNT>
0

> <PUBCHEM_BOND_UDEF_STEREO_COUNT>
0

> <PUBCHEM_ISOTOPIC_ATOM_COUNT>
0

> <PUBCHEM_COMPONENT_COUNT>
1

> <PUBCHEM_CACTVS_TAUTO_COUNT>
3

> <PUBCHEM_COORDINATE_TYPE>
1
5
255

> <PUBCHEM_BONDANNOTATIONS>
12  13  8
12  14  8
13  16  8
14  17  8
15  19  8
15  20  8
16  18  8
17  18  8
19  21  8
20  22  8
21  23  8
22  23  8

$$$$
