5616330
  -OEChem-03071302142D

 53 56  0     0  0  0  0  0  0999 V2000
    8.1962   -0.3060    0.0000 O   0  0  0  0  0  0  0  0  0  0  0  0
    5.5981   -2.8060    0.0000 N   0  3  0  0  0  0  0  0  0  0  0  0
    4.5981   -1.0740    0.0000 N   0  3  0  0  0  0  0  0  0  0  0  0
    8.1962   -3.3060    0.0000 N   0  0  0  0  0  0  0  0  0  0  0  0
    7.3301   -1.8060    0.0000 N   0  0  0  0  0  0  0  0  0  0  0  0
    6.0981   -1.9400    0.0000 C   0  0  0  0  0  0  0  0  0  0  0  0
    4.5981   -2.8060    0.0000 C   0  0  0  0  0  0  0  0  0  0  0  0
    5.5981   -1.0740    0.0000 C   0  0  0  0  0  0  0  0  0  0  0  0
    4.0981   -1.9400    0.0000 C   0  0  0  0  0  0  0  0  0  0  0  0
    6.4641   -3.3060    0.0000 C   0  0  0  0  0  0  0  0  0  0  0  0
    3.7320   -0.5740    0.0000 C   0  0  0  0  0  0  0  0  0  0  0  0
    7.3301   -2.8060    0.0000 C   0  0  0  0  0  0  0  0  0  0  0  0
    3.7320    0.4260    0.0000 C   0  0  0  0  0  0  0  0  0  0  0  0
    2.8660    0.9260    0.0000 C   0  0  0  0  0  0  0  0  0  0  0  0
    9.0622   -2.8060    0.0000 C   0  0  0  0  0  0  0  0  0  0  0  0
    9.0622   -1.8060    0.0000 C   0  0  0  0  0  0  0  0  0  0  0  0
    8.1962   -1.3060    0.0000 C   0  0  0  0  0  0  0  0  0  0  0  0
    2.8660    1.9260    0.0000 C   0  0  0  0  0  0  0  0  0  0  0  0
    9.9561   -3.3407    0.0000 C   0  0  0  0  0  0  0  0  0  0  0  0
    9.9561   -1.2714    0.0000 C   0  0  0  0  0  0  0  0  0  0  0  0
   10.8622   -2.8268    0.0000 C   0  0  0  0  0  0  0  0  0  0  0  0
   10.8622   -1.7852    0.0000 C   0  0  0  0  0  0  0  0  0  0  0  0
    3.7320    2.4260    0.0000 C   0  0  0  0  0  0  0  0  0  0  0  0
    2.0000    2.4260    0.0000 C   0  0  0  0  0  0  0  0  0  0  0  0
    3.7320    3.4260    0.0000 C   0  0  0  0  0  0  0  0  0  0  0  0
    2.0000    3.4260    0.0000 C   0  0  0  0  0  0  0  0  0  0  0  0
    2.8660    3.9260    0.0000 C   0  0  0  0  0  0  0  0  0  0  0  0
    5.5981   -3.8060    0.0000 H   0  0  0  0  0  0  0  0  0  0  0  0
    4.5981   -0.4540    0.0000 H   0  0  0  0  0  0  0  0  0  0  0  0
    6.5730   -2.3385    0.0000 H   0  0  0  0  0  0  0  0  0  0  0  0
    6.5730   -1.5415    0.0000 H   0  0  0  0  0  0  0  0  0  0  0  0
    4.0155   -3.0181    0.0000 H   0  0  0  0  0  0  0  0  0  0  0  0
    4.7057   -3.4166    0.0000 H   0  0  0  0  0  0  0  0  0  0  0  0
    6.1807   -0.8619    0.0000 H   0  0  0  0  0  0  0  0  0  0  0  0
    5.4904   -0.4634    0.0000 H   0  0  0  0  0  0  0  0  0  0  0  0
    3.6231   -1.5415    0.0000 H   0  0  0  0  0  0  0  0  0  0  0  0
    3.6231   -2.3385    0.0000 H   0  0  0  0  0  0  0  0  0  0  0  0
    6.0656   -3.7810    0.0000 H   0  0  0  0  0  0  0  0  0  0  0  0
    6.8626   -3.7810    0.0000 H   0  0  0  0  0  0  0  0  0  0  0  0
    3.1215   -0.4663    0.0000 H   0  0  0  0  0  0  0  0  0  0  0  0
    3.5200   -1.1566    0.0000 H   0  0  0  0  0  0  0  0  0  0  0  0
    4.2690    0.7360    0.0000 H   0  0  0  0  0  0  0  0  0  0  0  0
    8.1962   -3.9260    0.0000 H   0  0  0  0  0  0  0  0  0  0  0  0
    2.3291    0.6160    0.0000 H   0  0  0  0  0  0  0  0  0  0  0  0
    9.9490   -3.9606    0.0000 H   0  0  0  0  0  0  0  0  0  0  0  0
    9.9490   -0.6514    0.0000 H   0  0  0  0  0  0  0  0  0  0  0  0
   11.3979   -3.1389    0.0000 H   0  0  0  0  0  0  0  0  0  0  0  0
   11.3979   -1.4731    0.0000 H   0  0  0  0  0  0  0  0  0  0  0  0
    4.2690    2.1160    0.0000 H   0  0  0  0  0  0  0  0  0  0  0  0
    1.4631    2.1160    0.0000 H   0  0  0  0  0  0  0  0  0  0  0  0
    4.2690    3.7360    0.0000 H   0  0  0  0  0  0  0  0  0  0  0  0
    1.4631    3.7360    0.0000 H   0  0  0  0  0  0  0  0  0  0  0  0
    2.8660    4.5460    0.0000 H   0  0  0  0  0  0  0  0  0  0  0  0
  1 17  2  0  0  0  0
  2  6  1  0  0  0  0
  2  7  1  0  0  0  0
  2 10  1  0  0  0  0
  2 28  1  0  0  0  0
  3  8  1  0  0  0  0
  3  9  1  0  0  0  0
  3 11  1  0  0  0  0
  3 29  1  0  0  0  0
  4 12  1  0  0  0  0
  4 15  1  0  0  0  0
  4 43  1  0  0  0  0
  5 12  2  0  0  0  0
  5 17  1  0  0  0  0
  6  8  1  0  0  0  0
  6 30  1  0  0  0  0
  6 31  1  0  0  0  0
  7  9  1  0  0  0  0
  7 32  1  0  0  0  0
  7 33  1  0  0  0  0
  8 34  1  0  0  0  0
  8 35  1  0  0  0  0
  9 36  1  0  0  0  0
  9 37  1  0  0  0  0
 10 12  1  0  0  0  0
 10 38  1  0  0  0  0
 10 39  1  0  0  0  0
 11 13  1  0  0  0  0
 11 40  1  0  0  0  0
 11 41  1  0  0  0  0
 13 14  2  0  0  0  0
 13 42  1  0  0  0  0
 14 18  1  0  0  0  0
 14 44  1  0  0  0  0
 15 16  1  0  0  0  0
 15 19  2  0  0  0  0
 16 17  1  0  0  0  0
 16 20  2  0  0  0  0
 18 23  2  0  0  0  0
 18 24  1  0  0  0  0
 19 21  1  0  0  0  0
 19 45  1  0  0  0  0
 20 22  1  0  0  0  0
 20 46  1  0  0  0  0
 21 22  2  0  0  0  0
 21 47  1  0  0  0  0
 22 48  1  0  0  0  0
 23 25  1  0  0  0  0
 23 49  1  0  0  0  0
 24 26  2  0  0  0  0
 24 50  1  0  0  0  0
 25 27  2  0  0  0  0
 25 51  1  0  0  0  0
 26 27  1  0  0  0  0
 26 52  1  0  0  0  0
 27 53  1  0  0  0  0
M  CHG  2   2   1   3   1
M  END
> <PUBCHEM_COMPOUND_CID>
5616330

> <PUBCHEM_COMPOUND_CANONICALIZED>
1

> <PUBCHEM_CACTVS_COMPLEXITY>
559

> <PUBCHEM_CACTVS_HBOND_ACCEPTOR>
1

> <PUBCHEM_CACTVS_HBOND_DONOR>
3

> <PUBCHEM_CACTVS_ROTATABLE_BOND>
5

> <PUBCHEM_CACTVS_SUBSKEYS>
AAADceB7oAAAAAAAAAAAAAAAAAAAAAAAAAA8YIEAAAAAAACBQAAAHgAQAAAADAjBmAQxwIPAAACoAidydACCAAElAgAJiIEYZMgIYDrA3ZGUIYhgkADIyccYiACOAAAAAAACAAAAAAAAAAQAAAAAAAAAAA==

> <PUBCHEM_IUPAC_OPENEYE_NAME>
2-[[4-[(E)-cinnamyl]piperazine-1,4-diium-1-yl]methyl]-1H-quinazolin-4-one

> <PUBCHEM_IUPAC_CAS_NAME>
2-[[4-[(E)-3-phenylprop-2-enyl]-1-piperazine-1,4-diiumyl]methyl]-1H-quinazolin-4-one

> <PUBCHEM_IUPAC_NAME>
2-[[4-[(E)-3-phenylprop-2-enyl]piperazine-1,4-diium-1-yl]methyl]-1H-quinazolin-4-one

> <PUBCHEM_IUPAC_SYSTEMATIC_NAME>
2-[[4-[(E)-3-phenylprop-2-enyl]piperazine-1,4-diium-1-yl]methyl]-1H-quinazolin-4-one

> <PUBCHEM_IUPAC_TRADITIONAL_NAME>
2-[[4-[(E)-cinnamyl]piperazine-1,4-diium-1-yl]methyl]-1H-quinazolin-4-one

> <PUBCHEM_IUPAC_INCHI>
InChI=1S/C22H24N4O/c27-22-19-10-4-5-11-20(19)23-21(24-22)17-26-15-13-25(14-16-26)12-6-9-18-7-2-1-3-8-18/h1-11H,12-17H2,(H,23,24,27)/p+2/b9-6+

> <PUBCHEM_IUPAC_INCHIKEY>
MROLQNPKZSJGSR-RMKNXTFCSA-P

> <PUBCHEM_XLOGP3>
3.2

> <PUBCHEM_EXACT_MASS>
362.210661

> <PUBCHEM_MOLECULAR_FORMULA>
C22H26N4O+2

> <PUBCHEM_MOLECULAR_WEIGHT>
362.46804

> <PUBCHEM_OPENEYE_CAN_SMILES>
C1C[NH+](CC[NH+]1CC=CC2=CC=CC=C2)CC3=NC(=O)C4=CC=CC=C4N3

> <PUBCHEM_OPENEYE_ISO_SMILES>
C1C[NH+](CC[NH+]1C/C=C/C2=CC=CC=C2)CC3=NC(=O)C4=CC=CC=C4N3

> <PUBCHEM_CACTVS_TPSA>
50.3

> <PUBCHEM_MONOISOTOPIC_WEIGHT>
362.210661

> <PUBCHEM_TOTAL_CHARGE>
2

> <PUBCHEM_HEAVY_ATOM_COUNT>
27

> <PUBCHEM_ATOM_DEF_STEREO_COUNT>
0

> <PUBCHEM_ATOM_UDEF_STEREO_COUNT>
0

> <PUBCHEM_BOND_DEF_STEREO_COUNT>
1

> <PUBCHEM_BOND_UDEF_STEREO_COUNT>
0

> <PUBCHEM_ISOTOPIC_ATOM_COUNT>
0

> <PUBCHEM_COMPONENT_COUNT>
1

> <PUBCHEM_CACTVS_TAUTO_COUNT>
25

> <PUBCHEM_COORDINATE_TYPE>
1
5
255

> <PUBCHEM_BONDANNOTATIONS>
15  16  8
15  19  8
16  17  8
16  20  8
18  23  8
18  24  8
19  21  8
20  22  8
21  22  8
23  25  8
24  26  8
25  27  8
26  27  8
4  12  8
4  15  8
5  12  8
5  17  8

$$$$
