17231120
  -OEChem-11301217202D

 37 38  0     1  0  0  0  0  0999 V2000
    4.5981   -1.0194    0.0000 O   0  0  0  0  0  0  0  0  0  0  0  0
    3.7320    1.4806    0.0000 N   0  0  0  0  0  0  0  0  0  0  0  0
    5.4641    0.4806    0.0000 N   0  0  0  0  0  0  0  0  0  0  0  0
    3.7320    0.4806    0.0000 C   0  0  3  0  0  0  0  0  0  0  0  0
    2.8660   -0.0194    0.0000 C   0  0  0  0  0  0  0  0  0  0  0  0
    2.8660   -1.0194    0.0000 C   0  0  0  0  0  0  0  0  0  0  0  0
    4.5981   -0.0194    0.0000 C   0  0  0  0  0  0  0  0  0  0  0  0
    4.5411    2.0684    0.0000 C   0  0  0  0  0  0  0  0  0  0  0  0
    2.9230    2.0684    0.0000 C   0  0  0  0  0  0  0  0  0  0  0  0
    2.0000   -1.5194    0.0000 C   0  0  0  0  0  0  0  0  0  0  0  0
    3.7320   -1.5194    0.0000 C   0  0  0  0  0  0  0  0  0  0  0  0
    3.2320    3.0194    0.0000 C   0  0  0  0  0  0  0  0  0  0  0  0
    4.2320    3.0194    0.0000 C   0  0  0  0  0  0  0  0  0  0  0  0
    6.3301   -0.0194    0.0000 C   0  0  0  0  0  0  0  0  0  0  0  0
    2.0000   -2.5194    0.0000 C   0  0  0  0  0  0  0  0  0  0  0  0
    3.7320   -2.5194    0.0000 C   0  0  0  0  0  0  0  0  0  0  0  0
    2.8660   -3.0194    0.0000 C   0  0  0  0  0  0  0  0  0  0  0  0
    7.1962    0.4806    0.0000 C   0  0  0  0  0  0  0  0  0  0  0  0
    8.0622   -0.0194    0.0000 C   0  0  0  0  0  0  0  0  0  0  0  0
    4.2690    0.7906    0.0000 H   0  0  0  0  0  0  0  0  0  0  0  0
    2.6540    0.5632    0.0000 H   0  0  0  0  0  0  0  0  0  0  0  0
    2.2554   -0.1271    0.0000 H   0  0  0  0  0  0  0  0  0  0  0  0
    5.1307    1.8768    0.0000 H   0  0  0  0  0  0  0  0  0  0  0  0
    2.3334    1.8768    0.0000 H   0  0  0  0  0  0  0  0  0  0  0  0
    5.4641    1.1006    0.0000 H   0  0  0  0  0  0  0  0  0  0  0  0
    1.4631   -1.2094    0.0000 H   0  0  0  0  0  0  0  0  0  0  0  0
    4.2690   -1.2094    0.0000 H   0  0  0  0  0  0  0  0  0  0  0  0
    2.8676    3.5210    0.0000 H   0  0  0  0  0  0  0  0  0  0  0  0
    4.5965    3.5210    0.0000 H   0  0  0  0  0  0  0  0  0  0  0  0
    5.9316   -0.4944    0.0000 H   0  0  0  0  0  0  0  0  0  0  0  0
    6.7287   -0.4944    0.0000 H   0  0  0  0  0  0  0  0  0  0  0  0
    1.4631   -2.8294    0.0000 H   0  0  0  0  0  0  0  0  0  0  0  0
    4.2690   -2.8294    0.0000 H   0  0  0  0  0  0  0  0  0  0  0  0
    2.8660   -3.6394    0.0000 H   0  0  0  0  0  0  0  0  0  0  0  0
    7.1962    1.1006    0.0000 H   0  0  0  0  0  0  0  0  0  0  0  0
    8.0622   -0.6394    0.0000 H   0  0  0  0  0  0  0  0  0  0  0  0
    8.5991    0.2906    0.0000 H   0  0  0  0  0  0  0  0  0  0  0  0
  1  7  2  0  0  0  0
  2  4  1  0  0  0  0
  2  8  1  0  0  0  0
  2  9  1  0  0  0  0
  3  7  1  0  0  0  0
  3 14  1  0  0  0  0
  3 25  1  0  0  0  0
  4  5  1  0  0  0  0
  4  7  1  0  0  0  0
  4 20  1  0  0  0  0
  5  6  1  0  0  0  0
  5 21  1  0  0  0  0
  5 22  1  0  0  0  0
  6 10  2  0  0  0  0
  6 11  1  0  0  0  0
  8 13  2  0  0  0  0
  8 23  1  0  0  0  0
  9 12  2  0  0  0  0
  9 24  1  0  0  0  0
 10 15  1  0  0  0  0
 10 26  1  0  0  0  0
 11 16  2  0  0  0  0
 11 27  1  0  0  0  0
 12 13  1  0  0  0  0
 12 28  1  0  0  0  0
 13 29  1  0  0  0  0
 14 18  1  0  0  0  0
 14 30  1  0  0  0  0
 14 31  1  0  0  0  0
 15 17  2  0  0  0  0
 15 32  1  0  0  0  0
 16 17  1  0  0  0  0
 16 33  1  0  0  0  0
 17 34  1  0  0  0  0
 18 19  2  0  0  0  0
 18 35  1  0  0  0  0
 19 36  1  0  0  0  0
 19 37  1  0  0  0  0
M  END
> <PUBCHEM_COMPOUND_CID>
17231120

> <PUBCHEM_COMPOUND_CANONICALIZED>
1

> <PUBCHEM_CACTVS_COMPLEXITY>
291

> <PUBCHEM_CACTVS_HBOND_ACCEPTOR>
1

> <PUBCHEM_CACTVS_HBOND_DONOR>
1

> <PUBCHEM_CACTVS_ROTATABLE_BOND>
6

> <PUBCHEM_CACTVS_SUBSKEYS>
AAADceB7IAAAAAAAAAAAAAAAAAAAAWAAAAAwAAAAAAAAAAABwAAAHgAQAAAADCjBmgQ8gJPMEACoAjF3VACCgCAxAiAI2KG4ZJgIYPLAkbGUIAhglgDIyAcYiICOAAAAAAAAAAAAAAAAAAAAAAAAAAAAAA==

> <PUBCHEM_IUPAC_OPENEYE_NAME>
N-allyl-3-phenyl-2-pyrrol-1-yl-propanamide

> <PUBCHEM_IUPAC_CAS_NAME>
3-phenyl-N-prop-2-enyl-2-(1-pyrrolyl)propanamide

> <PUBCHEM_IUPAC_NAME>
3-phenyl-N-prop-2-enyl-2-pyrrol-1-ylpropanamide

> <PUBCHEM_IUPAC_SYSTEMATIC_NAME>
3-phenyl-N-prop-2-enyl-2-pyrrol-1-yl-propanamide

> <PUBCHEM_IUPAC_TRADITIONAL_NAME>
N-allyl-3-phenyl-2-pyrrol-1-yl-propionamide

> <PUBCHEM_IUPAC_INCHI>
InChI=1S/C16H18N2O/c1-2-10-17-16(19)15(18-11-6-7-12-18)13-14-8-4-3-5-9-14/h2-9,11-12,15H,1,10,13H2,(H,17,19)

> <PUBCHEM_IUPAC_INCHIKEY>
JXPQIIYQBSJDFS-UHFFFAOYSA-N

> <PUBCHEM_XLOGP3>
2.7

> <PUBCHEM_EXACT_MASS>
254.141913

> <PUBCHEM_MOLECULAR_FORMULA>
C16H18N2O

> <PUBCHEM_MOLECULAR_WEIGHT>
254.32692

> <PUBCHEM_OPENEYE_CAN_SMILES>
C=CCNC(=O)C(CC1=CC=CC=C1)N2C=CC=C2

> <PUBCHEM_OPENEYE_ISO_SMILES>
C=CCNC(=O)C(CC1=CC=CC=C1)N2C=CC=C2

> <PUBCHEM_CACTVS_TPSA>
34

> <PUBCHEM_MONOISOTOPIC_WEIGHT>
254.141913

> <PUBCHEM_TOTAL_CHARGE>
0

> <PUBCHEM_HEAVY_ATOM_COUNT>
19

> <PUBCHEM_ATOM_DEF_STEREO_COUNT>
0

> <PUBCHEM_ATOM_UDEF_STEREO_COUNT>
1

> <PUBCHEM_BOND_DEF_STEREO_COUNT>
0

> <PUBCHEM_BOND_UDEF_STEREO_COUNT>
0

> <PUBCHEM_ISOTOPIC_ATOM_COUNT>
0

> <PUBCHEM_COMPONENT_COUNT>
1

> <PUBCHEM_CACTVS_TAUTO_COUNT>
2

> <PUBCHEM_COORDINATE_TYPE>
1
5
255

> <PUBCHEM_BONDANNOTATIONS>
10  15  8
11  16  8
12  13  8
15  17  8
16  17  8
2  8  8
2  9  8
4  5  3
6  10  8
6  11  8
8  13  8
9  12  8

$$$$
17231122
  -OEChem-11301217202D

 39 40  0     1  0  0  0  0  0999 V2000
    4.5981   -1.0194    0.0000 O   0  0  0  0  0  0  0  0  0  0  0  0
    3.7320    1.4806    0.0000 N   0  0  0  0  0  0  0  0  0  0  0  0
    5.4641    0.4806    0.0000 N   0  0  0  0  0  0  0  0  0  0  0  0
    3.7320    0.4806    0.0000 C   0  0  3  0  0  0  0  0  0  0  0  0
    2.8660   -0.0194    0.0000 C   0  0  0  0  0  0  0  0  0  0  0  0
    4.5981   -0.0194    0.0000 C   0  0  0  0  0  0  0  0  0  0  0  0
    2.8660   -1.0194    0.0000 C   0  0  0  0  0  0  0  0  0  0  0  0
    6.3301   -0.0194    0.0000 C   0  0  0  0  0  0  0  0  0  0  0  0
    2.9230    2.0684    0.0000 C   0  0  0  0  0  0  0  0  0  0  0  0
    4.5411    2.0684    0.0000 C   0  0  0  0  0  0  0  0  0  0  0  0
    7.1962    0.4806    0.0000 C   0  0  0  0  0  0  0  0  0  0  0  0
    6.3301   -1.0194    0.0000 C   0  0  0  0  0  0  0  0  0  0  0  0
    2.0000   -1.5194    0.0000 C   0  0  0  0  0  0  0  0  0  0  0  0
    3.7320   -1.5194    0.0000 C   0  0  0  0  0  0  0  0  0  0  0  0
    3.2320    3.0194    0.0000 C   0  0  0  0  0  0  0  0  0  0  0  0
    4.2320    3.0194    0.0000 C   0  0  0  0  0  0  0  0  0  0  0  0
    2.0000   -2.5194    0.0000 C   0  0  0  0  0  0  0  0  0  0  0  0
    3.7320   -2.5194    0.0000 C   0  0  0  0  0  0  0  0  0  0  0  0
    2.8660   -3.0194    0.0000 C   0  0  0  0  0  0  0  0  0  0  0  0
    4.2690    0.7906    0.0000 H   0  0  0  0  0  0  0  0  0  0  0  0
    2.6540    0.5632    0.0000 H   0  0  0  0  0  0  0  0  0  0  0  0
    2.2554   -0.1271    0.0000 H   0  0  0  0  0  0  0  0  0  0  0  0
    5.7932   -0.3294    0.0000 H   0  0  0  0  0  0  0  0  0  0  0  0
    5.4641    1.1006    0.0000 H   0  0  0  0  0  0  0  0  0  0  0  0
    5.1307    1.8768    0.0000 H   0  0  0  0  0  0  0  0  0  0  0  0
    2.3334    1.8768    0.0000 H   0  0  0  0  0  0  0  0  0  0  0  0
    7.5062   -0.0564    0.0000 H   0  0  0  0  0  0  0  0  0  0  0  0
    5.7101   -1.0194    0.0000 H   0  0  0  0  0  0  0  0  0  0  0  0
    6.3301   -1.6394    0.0000 H   0  0  0  0  0  0  0  0  0  0  0  0
    6.9501   -1.0194    0.0000 H   0  0  0  0  0  0  0  0  0  0  0  0
    7.7331    0.7906    0.0000 H   0  0  0  0  0  0  0  0  0  0  0  0
    6.8862    1.0175    0.0000 H   0  0  0  0  0  0  0  0  0  0  0  0
    1.4631   -1.2094    0.0000 H   0  0  0  0  0  0  0  0  0  0  0  0
    4.2690   -1.2094    0.0000 H   0  0  0  0  0  0  0  0  0  0  0  0
    4.5965    3.5210    0.0000 H   0  0  0  0  0  0  0  0  0  0  0  0
    2.8676    3.5210    0.0000 H   0  0  0  0  0  0  0  0  0  0  0  0
    1.4631   -2.8294    0.0000 H   0  0  0  0  0  0  0  0  0  0  0  0
    4.2690   -2.8294    0.0000 H   0  0  0  0  0  0  0  0  0  0  0  0
    2.8660   -3.6394    0.0000 H   0  0  0  0  0  0  0  0  0  0  0  0
  1  6  2  0  0  0  0
  2  4  1  0  0  0  0
  2  9  1  0  0  0  0
  2 10  1  0  0  0  0
  3  6  1  0  0  0  0
  3  8  1  0  0  0  0
  3 24  1  0  0  0  0
  4  5  1  0  0  0  0
  4  6  1  0  0  0  0
  4 20  1  0  0  0  0
  5  7  1  0  0  0  0
  5 21  1  0  0  0  0
  5 22  1  0  0  0  0
  7 13  2  0  0  0  0
  7 14  1  0  0  0  0
  8 11  1  0  0  0  0
  8 12  1  0  0  0  0
  8 23  1  0  0  0  0
  9 15  2  0  0  0  0
  9 26  1  0  0  0  0
 10 16  2  0  0  0  0
 10 25  1  0  0  0  0
 11 27  1  0  0  0  0
 11 31  1  0  0  0  0
 11 32  1  0  0  0  0
 12 28  1  0  0  0  0
 12 29  1  0  0  0  0
 12 30  1  0  0  0  0
 13 17  1  0  0  0  0
 13 33  1  0  0  0  0
 14 18  2  0  0  0  0
 14 34  1  0  0  0  0
 15 16  1  0  0  0  0
 15 36  1  0  0  0  0
 16 35  1  0  0  0  0
 17 19  2  0  0  0  0
 17 37  1  0  0  0  0
 18 19  1  0  0  0  0
 18 38  1  0  0  0  0
 19 39  1  0  0  0  0
M  END
> <PUBCHEM_COMPOUND_CID>
17231122

> <PUBCHEM_COMPOUND_CANONICALIZED>
1

> <PUBCHEM_CACTVS_COMPLEXITY>
279

> <PUBCHEM_CACTVS_HBOND_ACCEPTOR>
1

> <PUBCHEM_CACTVS_HBOND_DONOR>
1

> <PUBCHEM_CACTVS_ROTATABLE_BOND>
5

> <PUBCHEM_CACTVS_SUBSKEYS>
AAADceB7IAAAAAAAAAAAAAAAAAAAAWAAAAAwAAAAAAAAAAABwAAAHgAQAAAADCjBmgQ+gJPMEACoAjF3VACCgCAxAiAI2KG4ZJgIYPLAkbGUIAhglgDIyAcYiICOAAAAAAAAAAAAAAAAAAAAAAAAAAAAAA==

> <PUBCHEM_IUPAC_OPENEYE_NAME>
N-isopropyl-3-phenyl-2-pyrrol-1-yl-propanamide

> <PUBCHEM_IUPAC_CAS_NAME>
3-phenyl-N-propan-2-yl-2-(1-pyrrolyl)propanamide

> <PUBCHEM_IUPAC_NAME>
3-phenyl-N-propan-2-yl-2-pyrrol-1-ylpropanamide

> <PUBCHEM_IUPAC_SYSTEMATIC_NAME>
3-phenyl-N-propan-2-yl-2-pyrrol-1-yl-propanamide

> <PUBCHEM_IUPAC_TRADITIONAL_NAME>
N-isopropyl-3-phenyl-2-pyrrol-1-yl-propionamide

> <PUBCHEM_IUPAC_INCHI>
InChI=1S/C16H20N2O/c1-13(2)17-16(19)15(18-10-6-7-11-18)12-14-8-4-3-5-9-14/h3-11,13,15H,12H2,1-2H3,(H,17,19)

> <PUBCHEM_IUPAC_INCHIKEY>
MRGQHLAYWKSEAT-UHFFFAOYSA-N

> <PUBCHEM_XLOGP3>
2.9

> <PUBCHEM_EXACT_MASS>
256.157563

> <PUBCHEM_MOLECULAR_FORMULA>
C16H20N2O

> <PUBCHEM_MOLECULAR_WEIGHT>
256.3428

> <PUBCHEM_OPENEYE_CAN_SMILES>
CC(C)NC(=O)C(CC1=CC=CC=C1)N2C=CC=C2

> <PUBCHEM_OPENEYE_ISO_SMILES>
CC(C)NC(=O)C(CC1=CC=CC=C1)N2C=CC=C2

> <PUBCHEM_CACTVS_TPSA>
34

> <PUBCHEM_MONOISOTOPIC_WEIGHT>
256.157563

> <PUBCHEM_TOTAL_CHARGE>
0

> <PUBCHEM_HEAVY_ATOM_COUNT>
19

> <PUBCHEM_ATOM_DEF_STEREO_COUNT>
0

> <PUBCHEM_ATOM_UDEF_STEREO_COUNT>
1

> <PUBCHEM_BOND_DEF_STEREO_COUNT>
0

> <PUBCHEM_BOND_UDEF_STEREO_COUNT>
0

> <PUBCHEM_ISOTOPIC_ATOM_COUNT>
0

> <PUBCHEM_COMPONENT_COUNT>
1

> <PUBCHEM_CACTVS_TAUTO_COUNT>
2

> <PUBCHEM_COORDINATE_TYPE>
1
5
255

> <PUBCHEM_BONDANNOTATIONS>
10  16  8
13  17  8
14  18  8
15  16  8
17  19  8
18  19  8
2  10  8
2  9  8
4  5  3
7  13  8
7  14  8
9  15  8

$$$$
17249132
  -OEChem-11301217212D

 28 28  0     0  0  0  0  0  0999 V2000
    4.5981   -3.0000    0.0000 Br  0  0  0  0  0  0  0  0  0  0  0  0
    6.3301    1.0000    0.0000 O   0  0  0  0  0  0  0  0  0  0  0  0
    4.5981    1.0000    0.0000 N   0  0  0  0  0  0  0  0  0  0  0  0
    3.7320   -0.5000    0.0000 C   0  0  0  0  0  0  0  0  0  0  0  0
    4.5981    0.0000    0.0000 C   0  0  0  0  0  0  0  0  0  0  0  0
    2.8660    0.0000    0.0000 C   0  0  0  0  0  0  0  0  0  0  0  0
    3.7320   -1.5000    0.0000 C   0  0  0  0  0  0  0  0  0  0  0  0
    5.4641   -0.5000    0.0000 C   0  0  0  0  0  0  0  0  0  0  0  0
    2.0000   -0.5000    0.0000 C   0  0  0  0  0  0  0  0  0  0  0  0
    5.4641    1.5000    0.0000 C   0  0  0  0  0  0  0  0  0  0  0  0
    4.5981   -2.0000    0.0000 C   0  0  0  0  0  0  0  0  0  0  0  0
    5.4641    2.5000    0.0000 C   0  0  0  0  0  0  0  0  0  0  0  0
    5.4641   -1.5000    0.0000 C   0  0  0  0  0  0  0  0  0  0  0  0
    6.3301    3.0000    0.0000 C   0  0  0  0  0  0  0  0  0  0  0  0
    3.2646    0.4749    0.0000 H   0  0  0  0  0  0  0  0  0  0  0  0
    2.4675    0.4749    0.0000 H   0  0  0  0  0  0  0  0  0  0  0  0
    3.1951   -1.8100    0.0000 H   0  0  0  0  0  0  0  0  0  0  0  0
    4.0611    1.3100    0.0000 H   0  0  0  0  0  0  0  0  0  0  0  0
    6.0010   -0.1900    0.0000 H   0  0  0  0  0  0  0  0  0  0  0  0
    1.6900    0.0369    0.0000 H   0  0  0  0  0  0  0  0  0  0  0  0
    1.4631   -0.8100    0.0000 H   0  0  0  0  0  0  0  0  0  0  0  0
    2.3100   -1.0369    0.0000 H   0  0  0  0  0  0  0  0  0  0  0  0
    5.2520    3.0826    0.0000 H   0  0  0  0  0  0  0  0  0  0  0  0
    4.8535    2.3923    0.0000 H   0  0  0  0  0  0  0  0  0  0  0  0
    6.0010   -1.8100    0.0000 H   0  0  0  0  0  0  0  0  0  0  0  0
    6.6401    2.4631    0.0000 H   0  0  0  0  0  0  0  0  0  0  0  0
    6.8671    3.3100    0.0000 H   0  0  0  0  0  0  0  0  0  0  0  0
    6.0201    3.5369    0.0000 H   0  0  0  0  0  0  0  0  0  0  0  0
  1 11  1  0  0  0  0
  2 10  2  0  0  0  0
  3  5  1  0  0  0  0
  3 10  1  0  0  0  0
  3 18  1  0  0  0  0
  4  5  2  0  0  0  0
  4  6  1  0  0  0  0
  4  7  1  0  0  0  0
  5  8  1  0  0  0  0
  6  9  1  0  0  0  0
  6 15  1  0  0  0  0
  6 16  1  0  0  0  0
  7 11  2  0  0  0  0
  7 17  1  0  0  0  0
  8 13  2  0  0  0  0
  8 19  1  0  0  0  0
  9 20  1  0  0  0  0
  9 21  1  0  0  0  0
  9 22  1  0  0  0  0
 10 12  1  0  0  0  0
 11 13  1  0  0  0  0
 12 14  1  0  0  0  0
 12 23  1  0  0  0  0
 12 24  1  0  0  0  0
 13 25  1  0  0  0  0
 14 26  1  0  0  0  0
 14 27  1  0  0  0  0
 14 28  1  0  0  0  0
M  END
> <PUBCHEM_COMPOUND_CID>
17249132

> <PUBCHEM_COMPOUND_CANONICALIZED>
1

> <PUBCHEM_CACTVS_COMPLEXITY>
196

> <PUBCHEM_CACTVS_HBOND_ACCEPTOR>
1

> <PUBCHEM_CACTVS_HBOND_DONOR>
1

> <PUBCHEM_CACTVS_ROTATABLE_BOND>
3

> <PUBCHEM_CACTVS_SUBSKEYS>
AAADccByIAAAEAAAAAAAAAAAAAAAAAAAAAAwAAAAAAAAAAABAAAAHgBQAAABrAiBmAAywILAAACIAiVSUACCAAAhAgQIiAEAZKgIICLAkZGEIAhglADIyhcQgIAOAAAgEAACAAAAAEAgAAQAAAAAAAAAAA==

> <PUBCHEM_IUPAC_OPENEYE_NAME>
N-(4-bromo-2-ethyl-phenyl)propanamide

> <PUBCHEM_IUPAC_CAS_NAME>
N-(4-bromo-2-ethylphenyl)propanamide

> <PUBCHEM_IUPAC_NAME>
N-(4-bromo-2-ethylphenyl)propanamide

> <PUBCHEM_IUPAC_SYSTEMATIC_NAME>
N-(4-bromanyl-2-ethyl-phenyl)propanamide

> <PUBCHEM_IUPAC_TRADITIONAL_NAME>
N-(4-bromo-2-ethyl-phenyl)propionamide

> <PUBCHEM_IUPAC_INCHI>
InChI=1S/C11H14BrNO/c1-3-8-7-9(12)5-6-10(8)13-11(14)4-2/h5-7H,3-4H2,1-2H3,(H,13,14)

> <PUBCHEM_IUPAC_INCHIKEY>
UOVPBVQPQNLENR-UHFFFAOYSA-N

> <PUBCHEM_XLOGP3>
2.7

> <PUBCHEM_EXACT_MASS>
255.025876

> <PUBCHEM_MOLECULAR_FORMULA>
C11H14BrNO

> <PUBCHEM_MOLECULAR_WEIGHT>
256.13896

> <PUBCHEM_OPENEYE_CAN_SMILES>
CCC1=C(C=CC(=C1)Br)NC(=O)CC

> <PUBCHEM_OPENEYE_ISO_SMILES>
CCC1=C(C=CC(=C1)Br)NC(=O)CC

> <PUBCHEM_CACTVS_TPSA>
29.1

> <PUBCHEM_MONOISOTOPIC_WEIGHT>
255.025876

> <PUBCHEM_TOTAL_CHARGE>
0

> <PUBCHEM_HEAVY_ATOM_COUNT>
14

> <PUBCHEM_ATOM_DEF_STEREO_COUNT>
0

> <PUBCHEM_ATOM_UDEF_STEREO_COUNT>
0

> <PUBCHEM_BOND_DEF_STEREO_COUNT>
0

> <PUBCHEM_BOND_UDEF_STEREO_COUNT>
0

> <PUBCHEM_ISOTOPIC_ATOM_COUNT>
0

> <PUBCHEM_COMPONENT_COUNT>
1

> <PUBCHEM_CACTVS_TAUTO_COUNT>
3

> <PUBCHEM_COORDINATE_TYPE>
1
5
255

> <PUBCHEM_BONDANNOTATIONS>
11  13  8
4  5  8
4  7  8
5  8  8
7  11  8
8  13  8

$$$$
