39258827
  -OEChem-03221309342D

 38 39  0     0  0  0  0  0  0999 V2000
    2.0000   -2.0000    0.0000 I   0  0  0  0  0  0  0  0  0  0  0  0
    2.8660   -0.5000    0.0000 O   0  0  0  0  0  0  0  0  0  0  0  0
    4.5981   -0.5000    0.0000 N   0  0  0  0  0  0  0  0  0  0  0  0
    5.4641    2.0000    0.0000 C   0  0  0  0  0  0  0  0  0  0  0  0
    6.3301    2.5000    0.0000 C   0  0  0  0  0  0  0  0  0  0  0  0
    4.5981    2.5000    0.0000 C   0  0  0  0  0  0  0  0  0  0  0  0
    6.3301    3.5000    0.0000 C   0  0  0  0  0  0  0  0  0  0  0  0
    4.5981    3.5000    0.0000 C   0  0  0  0  0  0  0  0  0  0  0  0
    5.4641    4.0000    0.0000 C   0  0  0  0  0  0  0  0  0  0  0  0
    5.4641    1.0000    0.0000 C   0  0  0  0  0  0  0  0  0  0  0  0
    4.5981    0.5000    0.0000 C   0  0  0  0  0  0  0  0  0  0  0  0
    3.7321   -1.0000    0.0000 C   0  0  0  0  0  0  0  0  0  0  0  0
    3.7321   -2.0000    0.0000 C   0  0  0  0  0  0  0  0  0  0  0  0
    2.8660   -2.5000    0.0000 C   0  0  0  0  0  0  0  0  0  0  0  0
    4.5981   -2.5000    0.0000 C   0  0  0  0  0  0  0  0  0  0  0  0
    2.8660   -3.5000    0.0000 C   0  0  0  0  0  0  0  0  0  0  0  0
    4.5981   -3.5000    0.0000 C   0  0  0  0  0  0  0  0  0  0  0  0
    3.7321   -4.0000    0.0000 C   0  0  0  0  0  0  0  0  0  0  0  0
    6.0010    1.6900    0.0000 H   0  0  0  0  0  0  0  0  0  0  0  0
    6.5422    1.9174    0.0000 H   0  0  0  0  0  0  0  0  0  0  0  0
    6.9407    2.6077    0.0000 H   0  0  0  0  0  0  0  0  0  0  0  0
    3.9875    2.6077    0.0000 H   0  0  0  0  0  0  0  0  0  0  0  0
    4.3860    1.9174    0.0000 H   0  0  0  0  0  0  0  0  0  0  0  0
    6.9407    3.3923    0.0000 H   0  0  0  0  0  0  0  0  0  0  0  0
    6.5422    4.0826    0.0000 H   0  0  0  0  0  0  0  0  0  0  0  0
    4.3860    4.0826    0.0000 H   0  0  0  0  0  0  0  0  0  0  0  0
    3.9875    3.3923    0.0000 H   0  0  0  0  0  0  0  0  0  0  0  0
    5.8626    4.4750    0.0000 H   0  0  0  0  0  0  0  0  0  0  0  0
    5.0656    4.4750    0.0000 H   0  0  0  0  0  0  0  0  0  0  0  0
    5.6762    0.4174    0.0000 H   0  0  0  0  0  0  0  0  0  0  0  0
    6.0747    1.1077    0.0000 H   0  0  0  0  0  0  0  0  0  0  0  0
    4.3860    1.0826    0.0000 H   0  0  0  0  0  0  0  0  0  0  0  0
    3.9875    0.3923    0.0000 H   0  0  0  0  0  0  0  0  0  0  0  0
    5.1350   -0.8100    0.0000 H   0  0  0  0  0  0  0  0  0  0  0  0
    5.1350   -2.1900    0.0000 H   0  0  0  0  0  0  0  0  0  0  0  0
    2.3291   -3.8100    0.0000 H   0  0  0  0  0  0  0  0  0  0  0  0
    5.1350   -3.8100    0.0000 H   0  0  0  0  0  0  0  0  0  0  0  0
    3.7321   -4.6200    0.0000 H   0  0  0  0  0  0  0  0  0  0  0  0
  1 14  1  0  0  0  0
  2 12  2  0  0  0  0
  3 11  1  0  0  0  0
  3 12  1  0  0  0  0
  3 34  1  0  0  0  0
  4  5  1  0  0  0  0
  4  6  1  0  0  0  0
  4 10  1  0  0  0  0
  4 19  1  0  0  0  0
  5  7  1  0  0  0  0
  5 20  1  0  0  0  0
  5 21  1  0  0  0  0
  6  8  1  0  0  0  0
  6 22  1  0  0  0  0
  6 23  1  0  0  0  0
  7  9  1  0  0  0  0
  7 24  1  0  0  0  0
  7 25  1  0  0  0  0
  8  9  1  0  0  0  0
  8 26  1  0  0  0  0
  8 27  1  0  0  0  0
  9 28  1  0  0  0  0
  9 29  1  0  0  0  0
 10 11  1  0  0  0  0
 10 30  1  0  0  0  0
 10 31  1  0  0  0  0
 11 32  1  0  0  0  0
 11 33  1  0  0  0  0
 12 13  1  0  0  0  0
 13 14  1  0  0  0  0
 13 15  2  0  0  0  0
 14 16  2  0  0  0  0
 15 17  1  0  0  0  0
 15 35  1  0  0  0  0
 16 18  1  0  0  0  0
 16 36  1  0  0  0  0
 17 18  2  0  0  0  0
 17 37  1  0  0  0  0
 18 38  1  0  0  0  0
M  END
> <PUBCHEM_COMPOUND_CID>
39258827

> <PUBCHEM_COMPOUND_CANONICALIZED>
1

> <PUBCHEM_CACTVS_COMPLEXITY>
263

> <PUBCHEM_CACTVS_HBOND_ACCEPTOR>
1

> <PUBCHEM_CACTVS_HBOND_DONOR>
1

> <PUBCHEM_CACTVS_ROTATABLE_BOND>
4

> <PUBCHEM_CACTVS_SUBSKEYS>
AAADceByIAAAAgAAAAAAAAAAAAAAAAAAAAAwYAAAAAAAAAABAAAAHgAwAAAADQDDmAQwAILAAACIAiFSEACCAAAkAAAIiIEIBMgIIDKAlRGEIQhglgCIiYcYiICOAAAAAAAAAAAAAAAAAAAAAAAAAAAAAA==

> <PUBCHEM_IUPAC_OPENEYE_NAME>
N-(2-cyclohexylethyl)-2-iodo-benzamide

> <PUBCHEM_IUPAC_CAS_NAME>
N-(2-cyclohexylethyl)-2-iodobenzamide

> <PUBCHEM_IUPAC_NAME>
N-(2-cyclohexylethyl)-2-iodobenzamide

> <PUBCHEM_IUPAC_SYSTEMATIC_NAME>
N-(2-cyclohexylethyl)-2-iodanyl-benzamide

> <PUBCHEM_IUPAC_TRADITIONAL_NAME>
N-(2-cyclohexylethyl)-2-iodo-benzamide

> <PUBCHEM_IUPAC_INCHI>
InChI=1S/C15H20INO/c16-14-9-5-4-8-13(14)15(18)17-11-10-12-6-2-1-3-7-12/h4-5,8-9,12H,1-3,6-7,10-11H2,(H,17,18)

> <PUBCHEM_IUPAC_INCHIKEY>
REMNHDINWQFKGF-UHFFFAOYSA-N

> <PUBCHEM_XLOGP3>
4.3

> <PUBCHEM_EXACT_MASS>
357.058962

> <PUBCHEM_MOLECULAR_FORMULA>
C15H20INO

> <PUBCHEM_MOLECULAR_WEIGHT>
357.22987

> <PUBCHEM_OPENEYE_CAN_SMILES>
C1CCC(CC1)CCNC(=O)C2=CC=CC=C2I

> <PUBCHEM_OPENEYE_ISO_SMILES>
C1CCC(CC1)CCNC(=O)C2=CC=CC=C2I

> <PUBCHEM_CACTVS_TPSA>
29.1

> <PUBCHEM_MONOISOTOPIC_WEIGHT>
357.058962

> <PUBCHEM_TOTAL_CHARGE>
0

> <PUBCHEM_HEAVY_ATOM_COUNT>
18

> <PUBCHEM_ATOM_DEF_STEREO_COUNT>
0

> <PUBCHEM_ATOM_UDEF_STEREO_COUNT>
0

> <PUBCHEM_BOND_DEF_STEREO_COUNT>
0

> <PUBCHEM_BOND_UDEF_STEREO_COUNT>
0

> <PUBCHEM_ISOTOPIC_ATOM_COUNT>
0

> <PUBCHEM_COMPONENT_COUNT>
1

> <PUBCHEM_CACTVS_TAUTO_COUNT>
2

> <PUBCHEM_COORDINATE_TYPE>
1
5
255

> <PUBCHEM_BONDANNOTATIONS>
13  14  8
13  15  8
14  16  8
15  17  8
16  18  8
17  18  8

$$$$
39269625
  -OEChem-03221309352D

 45 46  0     0  0  0  0  0  0999 V2000
    4.5981    5.7500    0.0000 F   0  0  0  0  0  0  0  0  0  0  0  0
    5.5981    4.7500    0.0000 F   0  0  0  0  0  0  0  0  0  0  0  0
    3.5981    4.7500    0.0000 F   0  0  0  0  0  0  0  0  0  0  0  0
    2.0000    1.2500    0.0000 F   0  0  0  0  0  0  0  0  0  0  0  0
    3.3660    0.8840    0.0000 F   0  0  0  0  0  0  0  0  0  0  0  0
    2.3660    2.6160    0.0000 F   0  0  0  0  0  0  0  0  0  0  0  0
    8.0622   -2.2500    0.0000 O   0  0  0  0  0  0  0  0  0  0  0  0
    7.1962    2.2500    0.0000 O   0  0  0  0  0  0  0  0  0  0  0  0
    9.7942   -4.2500    0.0000 O   0  0  0  0  0  0  0  0  0  0  0  0
    8.0622   -4.2500    0.0000 O   0  0  0  0  0  0  0  0  0  0  0  0
    6.3301    0.7500    0.0000 N   0  0  0  0  0  0  0  0  0  0  0  0
    5.4641    2.2500    0.0000 C   0  0  0  0  0  0  0  0  0  0  0  0
    4.5981    3.7500    0.0000 C   0  0  0  0  0  0  0  0  0  0  0  0
    3.7321    2.2500    0.0000 C   0  0  0  0  0  0  0  0  0  0  0  0
    4.5981    1.7500    0.0000 C   0  0  0  0  0  0  0  0  0  0  0  0
    5.4641    3.2500    0.0000 C   0  0  0  0  0  0  0  0  0  0  0  0
    3.7321    3.2500    0.0000 C   0  0  0  0  0  0  0  0  0  0  0  0
    6.3301    1.7500    0.0000 C   0  0  0  0  0  0  0  0  0  0  0  0
    7.1962    0.2500    0.0000 C   0  0  0  0  0  0  0  0  0  0  0  0
    4.5981    4.7500    0.0000 C   0  0  0  0  0  0  0  0  0  0  0  0
    2.8660    1.7500    0.0000 C   0  0  0  0  0  0  0  0  0  0  0  0
    7.1962   -0.7500    0.0000 C   0  0  0  0  0  0  0  0  0  0  0  0
    8.0622   -1.2500    0.0000 C   0  0  0  0  0  0  0  0  0  0  0  0
    8.0622    0.7500    0.0000 C   0  0  0  0  0  0  0  0  0  0  0  0
    8.9282   -0.7500    0.0000 C   0  0  0  0  0  0  0  0  0  0  0  0
    8.9282    0.2500    0.0000 C   0  0  0  0  0  0  0  0  0  0  0  0
    8.9282   -2.7500    0.0000 C   0  0  0  0  0  0  0  0  0  0  0  0
    8.9282   -3.7500    0.0000 C   0  0  0  0  0  0  0  0  0  0  0  0
    9.7942   -5.2500    0.0000 C   0  0  0  0  0  0  0  0  0  0  0  0
   10.6603   -5.7500    0.0000 C   0  0  0  0  0  0  0  0  0  0  0  0
    4.5981    1.1300    0.0000 H   0  0  0  0  0  0  0  0  0  0  0  0
    6.0010    3.5600    0.0000 H   0  0  0  0  0  0  0  0  0  0  0  0
    3.1951    3.5600    0.0000 H   0  0  0  0  0  0  0  0  0  0  0  0
    5.7932    0.4400    0.0000 H   0  0  0  0  0  0  0  0  0  0  0  0
    6.6592   -1.0600    0.0000 H   0  0  0  0  0  0  0  0  0  0  0  0
    8.0622    1.3700    0.0000 H   0  0  0  0  0  0  0  0  0  0  0  0
    9.4651   -1.0600    0.0000 H   0  0  0  0  0  0  0  0  0  0  0  0
    9.4651    0.5600    0.0000 H   0  0  0  0  0  0  0  0  0  0  0  0
    9.5388   -2.8577    0.0000 H   0  0  0  0  0  0  0  0  0  0  0  0
    9.1403   -2.1674    0.0000 H   0  0  0  0  0  0  0  0  0  0  0  0
    9.1837   -5.1423    0.0000 H   0  0  0  0  0  0  0  0  0  0  0  0
    9.5822   -5.8326    0.0000 H   0  0  0  0  0  0  0  0  0  0  0  0
   10.3503   -6.2869    0.0000 H   0  0  0  0  0  0  0  0  0  0  0  0
   11.1972   -6.0600    0.0000 H   0  0  0  0  0  0  0  0  0  0  0  0
   10.9703   -5.2131    0.0000 H   0  0  0  0  0  0  0  0  0  0  0  0
  1 20  1  0  0  0  0
  2 20  1  0  0  0  0
  3 20  1  0  0  0  0
  4 21  1  0  0  0  0
  5 21  1  0  0  0  0
  6 21  1  0  0  0  0
  7 23  1  0  0  0  0
  7 27  1  0  0  0  0
  8 18  2  0  0  0  0
  9 28  1  0  0  0  0
  9 29  1  0  0  0  0
 10 28  2  0  0  0  0
 11 18  1  0  0  0  0
 11 19  1  0  0  0  0
 11 34  1  0  0  0  0
 12 15  2  0  0  0  0
 12 16  1  0  0  0  0
 12 18  1  0  0  0  0
 13 16  2  0  0  0  0
 13 17  1  0  0  0  0
 13 20  1  0  0  0  0
 14 15  1  0  0  0  0
 14 17  2  0  0  0  0
 14 21  1  0  0  0  0
 15 31  1  0  0  0  0
 16 32  1  0  0  0  0
 17 33  1  0  0  0  0
 19 22  2  0  0  0  0
 19 24  1  0  0  0  0
 22 23  1  0  0  0  0
 22 35  1  0  0  0  0
 23 25  2  0  0  0  0
 24 26  2  0  0  0  0
 24 36  1  0  0  0  0
 25 26  1  0  0  0  0
 25 37  1  0  0  0  0
 26 38  1  0  0  0  0
 27 28  1  0  0  0  0
 27 39  1  0  0  0  0
 27 40  1  0  0  0  0
 29 30  1  0  0  0  0
 29 41  1  0  0  0  0
 29 42  1  0  0  0  0
 30 43  1  0  0  0  0
 30 44  1  0  0  0  0
 30 45  1  0  0  0  0
M  END
> <PUBCHEM_COMPOUND_CID>
39269625

> <PUBCHEM_COMPOUND_CANONICALIZED>
1

> <PUBCHEM_CACTVS_COMPLEXITY>
573

> <PUBCHEM_CACTVS_HBOND_ACCEPTOR>
10

> <PUBCHEM_CACTVS_HBOND_DONOR>
1

> <PUBCHEM_CACTVS_ROTATABLE_BOND>
7

> <PUBCHEM_CACTVS_SUBSKEYS>
AAADccB6OcAAAAAAAAAAAAAAAAAAAAAAAAAwYAAAAAAAAAABQAAAHwAQAAAADAyhmBIyzoLABACIAiXSWAKCCAAlIgAIiAFGbMgNJjLEtZ+GOSjm1BnK6YeY2EOOAAACAgAAAAAAAAQEAAAAAAAAAAAAAA==

> <PUBCHEM_IUPAC_OPENEYE_NAME>
ethyl 2-[3-[[3,5-bis(trifluoromethyl)benzoyl]amino]phenoxy]acetate

> <PUBCHEM_IUPAC_CAS_NAME>
2-[3-[[[3,5-bis(trifluoromethyl)phenyl]-oxomethyl]amino]phenoxy]acetic acid ethyl ester

> <PUBCHEM_IUPAC_NAME>
ethyl 2-[3-[[3,5-bis(trifluoromethyl)benzoyl]amino]phenoxy]acetate

> <PUBCHEM_IUPAC_SYSTEMATIC_NAME>
ethyl 2-[3-[[3,5-bis(trifluoromethyl)phenyl]carbonylamino]phenoxy]ethanoate

> <PUBCHEM_IUPAC_TRADITIONAL_NAME>
2-[3-[[3,5-bis(trifluoromethyl)benzoyl]amino]phenoxy]acetic acid ethyl ester

> <PUBCHEM_IUPAC_INCHI>
InChI=1S/C19H15F6NO4/c1-2-29-16(27)10-30-15-5-3-4-14(9-15)26-17(28)11-6-12(18(20,21)22)8-13(7-11)19(23,24)25/h3-9H,2,10H2,1H3,(H,26,28)

> <PUBCHEM_IUPAC_INCHIKEY>
HBXOOVPISLWUJK-UHFFFAOYSA-N

> <PUBCHEM_XLOGP3>
4.5

> <PUBCHEM_EXACT_MASS>
435.090527

> <PUBCHEM_MOLECULAR_FORMULA>
C19H15F6NO4

> <PUBCHEM_MOLECULAR_WEIGHT>
435.317119

> <PUBCHEM_OPENEYE_CAN_SMILES>
CCOC(=O)COC1=CC=CC(=C1)NC(=O)C2=CC(=CC(=C2)C(F)(F)F)C(F)(F)F

> <PUBCHEM_OPENEYE_ISO_SMILES>
CCOC(=O)COC1=CC=CC(=C1)NC(=O)C2=CC(=CC(=C2)C(F)(F)F)C(F)(F)F

> <PUBCHEM_CACTVS_TPSA>
64.6

> <PUBCHEM_MONOISOTOPIC_WEIGHT>
435.090527

> <PUBCHEM_TOTAL_CHARGE>
0

> <PUBCHEM_HEAVY_ATOM_COUNT>
30

> <PUBCHEM_ATOM_DEF_STEREO_COUNT>
0

> <PUBCHEM_ATOM_UDEF_STEREO_COUNT>
0

> <PUBCHEM_BOND_DEF_STEREO_COUNT>
0

> <PUBCHEM_BOND_UDEF_STEREO_COUNT>
0

> <PUBCHEM_ISOTOPIC_ATOM_COUNT>
0

> <PUBCHEM_COMPONENT_COUNT>
1

> <PUBCHEM_CACTVS_TAUTO_COUNT>
2

> <PUBCHEM_COORDINATE_TYPE>
1
5
255

> <PUBCHEM_BONDANNOTATIONS>
12  15  8
12  16  8
13  16  8
13  17  8
14  15  8
14  17  8
19  22  8
19  24  8
22  23  8
23  25  8
24  26  8
25  26  8

$$$$
