37586968
  -OEChem-12041211522D

 42 44  0     0  0  0  0  0  0999 V2000
    6.7619    1.4680    0.0000 O   0  0  0  0  0  0  0  0  0  0  0  0
    6.7619   -0.2640    0.0000 N   0  0  0  0  0  0  0  0  0  0  0  0
    4.6783    1.4067    0.0000 N   0  0  0  0  0  0  0  0  0  0  0  0
    7.7619   -0.2640    0.0000 C   0  0  0  0  0  0  0  0  0  0  0  0
    8.2619    0.6020    0.0000 C   0  0  0  0  0  0  0  0  0  0  0  0
    8.2619   -1.1300    0.0000 C   0  0  0  0  0  0  0  0  0  0  0  0
    9.2619    0.6020    0.0000 C   0  0  0  0  0  0  0  0  0  0  0  0
    9.2619   -1.1300    0.0000 C   0  0  0  0  0  0  0  0  0  0  0  0
    9.7619   -0.2640    0.0000 C   0  0  0  0  0  0  0  0  0  0  0  0
    6.2619   -1.1300    0.0000 C   0  0  0  0  0  0  0  0  0  0  0  0
    6.2619    0.6020    0.0000 C   0  0  0  0  0  0  0  0  0  0  0  0
    5.2619    0.6020    0.0000 C   0  0  0  0  0  0  0  0  0  0  0  0
    6.7619   -1.9961    0.0000 C   0  0  0  0  0  0  0  0  0  0  0  0
    4.6783   -0.2027    0.0000 C   0  0  0  0  0  0  0  0  0  0  0  0
    3.7320    1.1020    0.0000 C   0  0  0  0  0  0  0  0  0  0  0  0
    3.7320    0.1020    0.0000 C   0  0  0  0  0  0  0  0  0  0  0  0
    2.8660    1.6020    0.0000 C   0  0  0  0  0  0  0  0  0  0  0  0
    2.8660   -0.3980    0.0000 C   0  0  0  0  0  0  0  0  0  0  0  0
    2.0000    1.1020    0.0000 C   0  0  0  0  0  0  0  0  0  0  0  0
    2.0000    0.1020    0.0000 C   0  0  0  0  0  0  0  0  0  0  0  0
    7.4519    0.2729    0.0000 H   0  0  0  0  0  0  0  0  0  0  0  0
    8.3695    1.2126    0.0000 H   0  0  0  0  0  0  0  0  0  0  0  0
    7.6793    0.8141    0.0000 H   0  0  0  0  0  0  0  0  0  0  0  0
    7.6793   -1.3421    0.0000 H   0  0  0  0  0  0  0  0  0  0  0  0
    8.3695   -1.7406    0.0000 H   0  0  0  0  0  0  0  0  0  0  0  0
    9.8445    0.8141    0.0000 H   0  0  0  0  0  0  0  0  0  0  0  0
    9.1542    1.2126    0.0000 H   0  0  0  0  0  0  0  0  0  0  0  0
    9.1542   -1.7406    0.0000 H   0  0  0  0  0  0  0  0  0  0  0  0
    9.8445   -1.3421    0.0000 H   0  0  0  0  0  0  0  0  0  0  0  0
   10.2368   -0.6625    0.0000 H   0  0  0  0  0  0  0  0  0  0  0  0
   10.2368    0.1345    0.0000 H   0  0  0  0  0  0  0  0  0  0  0  0
    5.7869   -0.7315    0.0000 H   0  0  0  0  0  0  0  0  0  0  0  0
    5.7869   -1.5286    0.0000 H   0  0  0  0  0  0  0  0  0  0  0  0
    6.2249   -2.3061    0.0000 H   0  0  0  0  0  0  0  0  0  0  0  0
    7.0719   -2.5330    0.0000 H   0  0  0  0  0  0  0  0  0  0  0  0
    7.2988   -1.6861    0.0000 H   0  0  0  0  0  0  0  0  0  0  0  0
    4.8709    1.9961    0.0000 H   0  0  0  0  0  0  0  0  0  0  0  0
    4.8709   -0.7920    0.0000 H   0  0  0  0  0  0  0  0  0  0  0  0
    2.8660    2.2220    0.0000 H   0  0  0  0  0  0  0  0  0  0  0  0
    2.8660   -1.0180    0.0000 H   0  0  0  0  0  0  0  0  0  0  0  0
    1.4631    1.4120    0.0000 H   0  0  0  0  0  0  0  0  0  0  0  0
    1.4631   -0.2080    0.0000 H   0  0  0  0  0  0  0  0  0  0  0  0
  1 11  2  0  0  0  0
  2  4  1  0  0  0  0
  2 10  1  0  0  0  0
  2 11  1  0  0  0  0
  3 12  1  0  0  0  0
  3 15  1  0  0  0  0
  3 37  1  0  0  0  0
  4  5  1  0  0  0  0
  4  6  1  0  0  0  0
  4 21  1  0  0  0  0
  5  7  1  0  0  0  0
  5 22  1  0  0  0  0
  5 23  1  0  0  0  0
  6  8  1  0  0  0  0
  6 24  1  0  0  0  0
  6 25  1  0  0  0  0
  7  9  1  0  0  0  0
  7 26  1  0  0  0  0
  7 27  1  0  0  0  0
  8  9  1  0  0  0  0
  8 28  1  0  0  0  0
  8 29  1  0  0  0  0
  9 30  1  0  0  0  0
  9 31  1  0  0  0  0
 10 13  1  0  0  0  0
 10 32  1  0  0  0  0
 10 33  1  0  0  0  0
 11 12  1  0  0  0  0
 12 14  2  0  0  0  0
 13 34  1  0  0  0  0
 13 35  1  0  0  0  0
 13 36  1  0  0  0  0
 14 16  1  0  0  0  0
 14 38  1  0  0  0  0
 15 16  1  0  0  0  0
 15 17  2  0  0  0  0
 16 18  2  0  0  0  0
 17 19  1  0  0  0  0
 17 39  1  0  0  0  0
 18 20  1  0  0  0  0
 18 40  1  0  0  0  0
 19 20  2  0  0  0  0
 19 41  1  0  0  0  0
 20 42  1  0  0  0  0
M  END
> <PUBCHEM_COMPOUND_CID>
37586968

> <PUBCHEM_COMPOUND_CANONICALIZED>
1

> <PUBCHEM_CACTVS_COMPLEXITY>
338

> <PUBCHEM_CACTVS_HBOND_ACCEPTOR>
1

> <PUBCHEM_CACTVS_HBOND_DONOR>
1

> <PUBCHEM_CACTVS_ROTATABLE_BOND>
3

> <PUBCHEM_CACTVS_SUBSKEYS>
AAADceB7IAAAAAAAAAAAAAAAAAAAAWAAAAAwYAAAAAAAAFgB8AAAHgAQAAAADCjBngQywPPJkACoAyVyVACCgCAnAiAImSG4ZNgIYPLAlbGUIQhglgDIyYcYiYCeAAAAAAACAAAAAAAAAAQAAAAAAAAAAA==

> <PUBCHEM_IUPAC_OPENEYE_NAME>
N-cyclohexyl-N-ethyl-1H-indole-2-carboxamide

> <PUBCHEM_IUPAC_CAS_NAME>
N-cyclohexyl-N-ethyl-1H-indole-2-carboxamide

> <PUBCHEM_IUPAC_NAME>
N-cyclohexyl-N-ethyl-1H-indole-2-carboxamide

> <PUBCHEM_IUPAC_SYSTEMATIC_NAME>
N-cyclohexyl-N-ethyl-1H-indole-2-carboxamide

> <PUBCHEM_IUPAC_TRADITIONAL_NAME>
N-cyclohexyl-N-ethyl-1H-indole-2-carboxamide

> <PUBCHEM_IUPAC_INCHI>
InChI=1S/C17H22N2O/c1-2-19(14-9-4-3-5-10-14)17(20)16-12-13-8-6-7-11-15(13)18-16/h6-8,11-12,14,18H,2-5,9-10H2,1H3

> <PUBCHEM_IUPAC_INCHIKEY>
LAIURIRMPKLERZ-UHFFFAOYSA-N

> <PUBCHEM_XLOGP3>
4.4

> <PUBCHEM_EXACT_MASS>
270.173213

> <PUBCHEM_MOLECULAR_FORMULA>
C17H22N2O

> <PUBCHEM_MOLECULAR_WEIGHT>
270.36938

> <PUBCHEM_OPENEYE_CAN_SMILES>
CCN(C1CCCCC1)C(=O)C2=CC3=CC=CC=C3N2

> <PUBCHEM_OPENEYE_ISO_SMILES>
CCN(C1CCCCC1)C(=O)C2=CC3=CC=CC=C3N2

> <PUBCHEM_CACTVS_TPSA>
36.1

> <PUBCHEM_MONOISOTOPIC_WEIGHT>
270.173213

> <PUBCHEM_TOTAL_CHARGE>
0

> <PUBCHEM_HEAVY_ATOM_COUNT>
20

> <PUBCHEM_ATOM_DEF_STEREO_COUNT>
0

> <PUBCHEM_ATOM_UDEF_STEREO_COUNT>
0

> <PUBCHEM_BOND_DEF_STEREO_COUNT>
0

> <PUBCHEM_BOND_UDEF_STEREO_COUNT>
0

> <PUBCHEM_ISOTOPIC_ATOM_COUNT>
0

> <PUBCHEM_COMPONENT_COUNT>
1

> <PUBCHEM_CACTVS_TAUTO_COUNT>
6

> <PUBCHEM_COORDINATE_TYPE>
1
5
255

> <PUBCHEM_BONDANNOTATIONS>
12  14  8
14  16  8
15  16  8
15  17  8
16  18  8
17  19  8
18  20  8
19  20  8
3  12  8
3  15  8

$$$$
37587212
  -OEChem-12041211522D

 45 47  0     0  0  0  0  0  0999 V2000
    6.6353   -0.3892    0.0000 O   0  0  0  0  0  0  0  0  0  0  0  0
    6.2781    1.3056    0.0000 N   0  0  0  0  0  0  0  0  0  0  0  0
    4.6783   -2.4111    0.0000 N   0  0  0  0  0  0  0  0  0  0  0  0
    7.2566    1.5118    0.0000 C   0  0  0  0  0  0  0  0  0  0  0  0
    7.9244    0.7675    0.0000 C   0  0  0  0  0  0  0  0  0  0  0  0
    7.5673    2.4623    0.0000 C   0  0  0  0  0  0  0  0  0  0  0  0
    8.9030    0.9737    0.0000 C   0  0  0  0  0  0  0  0  0  0  0  0
    8.5458    2.6686    0.0000 C   0  0  0  0  0  0  0  0  0  0  0  0
    9.2136    1.9243    0.0000 C   0  0  0  0  0  0  0  0  0  0  0  0
    5.6103    2.0499    0.0000 C   0  0  0  0  0  0  0  0  0  0  0  0
    5.9674    0.3551    0.0000 C   0  0  0  0  0  0  0  0  0  0  0  0
    4.9889    0.1489    0.0000 C   0  0  0  0  0  0  0  0  0  0  0  0
    5.9209    3.0004    0.0000 C   0  0  0  0  0  0  0  0  0  0  0  0
    4.6783   -0.8016    0.0000 C   0  0  0  0  0  0  0  0  0  0  0  0
    3.7320   -1.1064    0.0000 C   0  0  0  0  0  0  0  0  0  0  0  0
    5.2619   -1.6064    0.0000 C   0  0  0  0  0  0  0  0  0  0  0  0
    3.7320   -2.1064    0.0000 C   0  0  0  0  0  0  0  0  0  0  0  0
    2.8660   -0.6064    0.0000 C   0  0  0  0  0  0  0  0  0  0  0  0
    2.8660   -2.6064    0.0000 C   0  0  0  0  0  0  0  0  0  0  0  0
    2.0000   -1.1064    0.0000 C   0  0  0  0  0  0  0  0  0  0  0  0
    2.0000   -2.1064    0.0000 C   0  0  0  0  0  0  0  0  0  0  0  0
    7.0640    0.9225    0.0000 H   0  0  0  0  0  0  0  0  0  0  0  0
    7.5467    3.0820    0.0000 H   0  0  0  0  0  0  0  0  0  0  0  0
    6.9534    2.5497    0.0000 H   0  0  0  0  0  0  0  0  0  0  0  0
    7.3981    0.4399    0.0000 H   0  0  0  0  0  0  0  0  0  0  0  0
    8.1557    0.1923    0.0000 H   0  0  0  0  0  0  0  0  0  0  0  0
    9.0721    2.9962    0.0000 H   0  0  0  0  0  0  0  0  0  0  0  0
    8.3145    3.2438    0.0000 H   0  0  0  0  0  0  0  0  0  0  0  0
    8.9235    0.3541    0.0000 H   0  0  0  0  0  0  0  0  0  0  0  0
    9.5168    0.8864    0.0000 H   0  0  0  0  0  0  0  0  0  0  0  0
    9.7605    1.6322    0.0000 H   0  0  0  0  0  0  0  0  0  0  0  0
    9.5962    2.4122    0.0000 H   0  0  0  0  0  0  0  0  0  0  0  0
    5.0633    2.3419    0.0000 H   0  0  0  0  0  0  0  0  0  0  0  0
    5.2277    1.5620    0.0000 H   0  0  0  0  0  0  0  0  0  0  0  0
    4.9684    0.7685    0.0000 H   0  0  0  0  0  0  0  0  0  0  0  0
    4.3751    0.2362    0.0000 H   0  0  0  0  0  0  0  0  0  0  0  0
    6.5102    2.8078    0.0000 H   0  0  0  0  0  0  0  0  0  0  0  0
    6.1135    3.5898    0.0000 H   0  0  0  0  0  0  0  0  0  0  0  0
    5.3316    3.1930    0.0000 H   0  0  0  0  0  0  0  0  0  0  0  0
    5.8819   -1.6064    0.0000 H   0  0  0  0  0  0  0  0  0  0  0  0
    4.8709   -3.0004    0.0000 H   0  0  0  0  0  0  0  0  0  0  0  0
    2.8660    0.0136    0.0000 H   0  0  0  0  0  0  0  0  0  0  0  0
    2.8660   -3.2264    0.0000 H   0  0  0  0  0  0  0  0  0  0  0  0
    1.4631   -0.7964    0.0000 H   0  0  0  0  0  0  0  0  0  0  0  0
    1.4631   -2.4164    0.0000 H   0  0  0  0  0  0  0  0  0  0  0  0
  1 11  2  0  0  0  0
  2  4  1  0  0  0  0
  2 10  1  0  0  0  0
  2 11  1  0  0  0  0
  3 16  1  0  0  0  0
  3 17  1  0  0  0  0
  3 41  1  0  0  0  0
  4  5  1  0  0  0  0
  4  6  1  0  0  0  0
  4 22  1  0  0  0  0
  5  7  1  0  0  0  0
  5 25  1  0  0  0  0
  5 26  1  0  0  0  0
  6  8  1  0  0  0  0
  6 23  1  0  0  0  0
  6 24  1  0  0  0  0
  7  9  1  0  0  0  0
  7 29  1  0  0  0  0
  7 30  1  0  0  0  0
  8  9  1  0  0  0  0
  8 27  1  0  0  0  0
  8 28  1  0  0  0  0
  9 31  1  0  0  0  0
  9 32  1  0  0  0  0
 10 13  1  0  0  0  0
 10 33  1  0  0  0  0
 10 34  1  0  0  0  0
 11 12  1  0  0  0  0
 12 14  1  0  0  0  0
 12 35  1  0  0  0  0
 12 36  1  0  0  0  0
 13 37  1  0  0  0  0
 13 38  1  0  0  0  0
 13 39  1  0  0  0  0
 14 15  1  0  0  0  0
 14 16  2  0  0  0  0
 15 17  1  0  0  0  0
 15 18  2  0  0  0  0
 16 40  1  0  0  0  0
 17 19  2  0  0  0  0
 18 20  1  0  0  0  0
 18 42  1  0  0  0  0
 19 21  1  0  0  0  0
 19 43  1  0  0  0  0
 20 21  2  0  0  0  0
 20 44  1  0  0  0  0
 21 45  1  0  0  0  0
M  END
> <PUBCHEM_COMPOUND_CID>
37587212

> <PUBCHEM_COMPOUND_CANONICALIZED>
1

> <PUBCHEM_CACTVS_COMPLEXITY>
351

> <PUBCHEM_CACTVS_HBOND_ACCEPTOR>
1

> <PUBCHEM_CACTVS_HBOND_DONOR>
1

> <PUBCHEM_CACTVS_ROTATABLE_BOND>
4

> <PUBCHEM_CACTVS_SUBSKEYS>
AAADceB7IAAAAAAAAAAAAAAAAAAAAWAAAAAwYAAAAAAAAFgB8AAAHgAQAAAADCjBngQ+wPPJkACoAzV3VACCgCAxAiAI2aE4ZJgIIPLAlZGEIAhglgDIyAccicCegAAAAAACAAAAAAAAAAQAAAAAAAAAAA==

> <PUBCHEM_IUPAC_OPENEYE_NAME>
N-cyclohexyl-N-ethyl-2-(1H-indol-3-yl)acetamide

> <PUBCHEM_IUPAC_CAS_NAME>
N-cyclohexyl-N-ethyl-2-(1H-indol-3-yl)acetamide

> <PUBCHEM_IUPAC_NAME>
N-cyclohexyl-N-ethyl-2-(1H-indol-3-yl)acetamide

> <PUBCHEM_IUPAC_SYSTEMATIC_NAME>
N-cyclohexyl-N-ethyl-2-(1H-indol-3-yl)ethanamide

> <PUBCHEM_IUPAC_TRADITIONAL_NAME>
N-cyclohexyl-N-ethyl-2-(1H-indol-3-yl)acetamide

> <PUBCHEM_IUPAC_INCHI>
InChI=1S/C18H24N2O/c1-2-20(15-8-4-3-5-9-15)18(21)12-14-13-19-17-11-7-6-10-16(14)17/h6-7,10-11,13,15,19H,2-5,8-9,12H2,1H3

> <PUBCHEM_IUPAC_INCHIKEY>
ZJOKQULTKAUOIG-UHFFFAOYSA-N

> <PUBCHEM_XLOGP3>
3.5

> <PUBCHEM_EXACT_MASS>
284.188863

> <PUBCHEM_MOLECULAR_FORMULA>
C18H24N2O

> <PUBCHEM_MOLECULAR_WEIGHT>
284.39596

> <PUBCHEM_OPENEYE_CAN_SMILES>
CCN(C1CCCCC1)C(=O)CC2=CNC3=CC=CC=C32

> <PUBCHEM_OPENEYE_ISO_SMILES>
CCN(C1CCCCC1)C(=O)CC2=CNC3=CC=CC=C32

> <PUBCHEM_CACTVS_TPSA>
36.1

> <PUBCHEM_MONOISOTOPIC_WEIGHT>
284.188863

> <PUBCHEM_TOTAL_CHARGE>
0

> <PUBCHEM_HEAVY_ATOM_COUNT>
21

> <PUBCHEM_ATOM_DEF_STEREO_COUNT>
0

> <PUBCHEM_ATOM_UDEF_STEREO_COUNT>
0

> <PUBCHEM_BOND_DEF_STEREO_COUNT>
0

> <PUBCHEM_BOND_UDEF_STEREO_COUNT>
0

> <PUBCHEM_ISOTOPIC_ATOM_COUNT>
0

> <PUBCHEM_COMPONENT_COUNT>
1

> <PUBCHEM_CACTVS_TAUTO_COUNT>
1

> <PUBCHEM_COORDINATE_TYPE>
1
5
255

> <PUBCHEM_BONDANNOTATIONS>
14  15  8
14  16  8
15  17  8
15  18  8
17  19  8
18  20  8
19  21  8
20  21  8
3  16  8
3  17  8

$$$$
