51111147
  -OEChem-11301218002D

 36 36  0     1  0  0  0  0  0999 V2000
    5.5000   -1.7990    0.0000 O   0  0  0  0  0  0  0  0  0  0  0  0
    4.0000   -0.9330    0.0000 N   0  0  0  0  0  0  0  0  0  0  0  0
    6.3660    0.4330    0.0000 C   0  0  0  0  0  0  0  0  0  0  0  0
    5.5000    0.9330    0.0000 C   0  0  3  0  0  0  0  0  0  0  0  0
    5.5000   -0.0670    0.0000 C   0  0  3  0  0  0  0  0  0  0  0  0
    6.8660   -0.4330    0.0000 C   0  0  0  0  0  0  0  0  0  0  0  0
    6.8660    1.2990    0.0000 C   0  0  0  0  0  0  0  0  0  0  0  0
    5.0000    1.7990    0.0000 C   0  0  0  0  0  0  0  0  0  0  0  0
    5.0000   -0.9330    0.0000 C   0  0  0  0  0  0  0  0  0  0  0  0
    4.0000    1.7990    0.0000 C   0  0  0  0  0  0  0  0  0  0  0  0
    3.5000    2.6651    0.0000 C   0  0  0  0  0  0  0  0  0  0  0  0
    3.5000    0.9330    0.0000 C   0  0  0  0  0  0  0  0  0  0  0  0
    3.5000   -1.7990    0.0000 C   0  0  0  0  0  0  0  0  0  0  0  0
    2.5000   -1.7990    0.0000 C   0  0  0  0  0  0  0  0  0  0  0  0
    2.0000   -2.6651    0.0000 C   0  0  0  0  0  0  0  0  0  0  0  0
    5.9384    1.3714    0.0000 H   0  0  0  0  0  0  0  0  0  0  0  0
    4.9011    0.0935    0.0000 H   0  0  0  0  0  0  0  0  0  0  0  0
    6.3291   -0.7430    0.0000 H   0  0  0  0  0  0  0  0  0  0  0  0
    7.1760   -0.9699    0.0000 H   0  0  0  0  0  0  0  0  0  0  0  0
    7.4030   -0.1230    0.0000 H   0  0  0  0  0  0  0  0  0  0  0  0
    7.4030    0.9890    0.0000 H   0  0  0  0  0  0  0  0  0  0  0  0
    7.1760    1.8360    0.0000 H   0  0  0  0  0  0  0  0  0  0  0  0
    6.3291    1.6090    0.0000 H   0  0  0  0  0  0  0  0  0  0  0  0
    5.3100    2.3360    0.0000 H   0  0  0  0  0  0  0  0  0  0  0  0
    3.6900   -0.3961    0.0000 H   0  0  0  0  0  0  0  0  0  0  0  0
    2.9631    1.2430    0.0000 H   0  0  0  0  0  0  0  0  0  0  0  0
    3.1900    0.3961    0.0000 H   0  0  0  0  0  0  0  0  0  0  0  0
    4.0369    0.6230    0.0000 H   0  0  0  0  0  0  0  0  0  0  0  0
    4.0369    2.9751    0.0000 H   0  0  0  0  0  0  0  0  0  0  0  0
    3.1900    3.2020    0.0000 H   0  0  0  0  0  0  0  0  0  0  0  0
    2.9631    2.3551    0.0000 H   0  0  0  0  0  0  0  0  0  0  0  0
    3.3923   -2.4096    0.0000 H   0  0  0  0  0  0  0  0  0  0  0  0
    4.0826   -2.0111    0.0000 H   0  0  0  0  0  0  0  0  0  0  0  0
    2.1900   -1.2621    0.0000 H   0  0  0  0  0  0  0  0  0  0  0  0
    1.3800   -2.6651    0.0000 H   0  0  0  0  0  0  0  0  0  0  0  0
    2.3100   -3.2020    0.0000 H   0  0  0  0  0  0  0  0  0  0  0  0
  1  9  2  0  0  0  0
  2  9  1  0  0  0  0
  2 13  1  0  0  0  0
  2 25  1  0  0  0  0
  3  4  1  0  0  0  0
  3  5  1  0  0  0  0
  3  6  1  0  0  0  0
  3  7  1  0  0  0  0
  4  5  1  0  0  0  0
  4  8  1  0  0  0  0
  4 16  1  0  0  0  0
  5  9  1  0  0  0  0
  5 17  1  0  0  0  0
  6 18  1  0  0  0  0
  6 19  1  0  0  0  0
  6 20  1  0  0  0  0
  7 21  1  0  0  0  0
  7 22  1  0  0  0  0
  7 23  1  0  0  0  0
  8 10  2  0  0  0  0
  8 24  1  0  0  0  0
 10 11  1  0  0  0  0
 10 12  1  0  0  0  0
 11 29  1  0  0  0  0
 11 30  1  0  0  0  0
 11 31  1  0  0  0  0
 12 26  1  0  0  0  0
 12 27  1  0  0  0  0
 12 28  1  0  0  0  0
 13 14  1  0  0  0  0
 13 32  1  0  0  0  0
 13 33  1  0  0  0  0
 14 15  2  0  0  0  0
 14 34  1  0  0  0  0
 15 35  1  0  0  0  0
 15 36  1  0  0  0  0
M  END
> <PUBCHEM_COMPOUND_CID>
51111147

> <PUBCHEM_COMPOUND_CANONICALIZED>
1

> <PUBCHEM_CACTVS_COMPLEXITY>
298

> <PUBCHEM_CACTVS_HBOND_ACCEPTOR>
1

> <PUBCHEM_CACTVS_HBOND_DONOR>
1

> <PUBCHEM_CACTVS_ROTATABLE_BOND>
4

> <PUBCHEM_CACTVS_SUBSKEYS>
AAADceByIAAAAAAAAAAAAAAAGAAAAAAAAAAAAAAAAAAAAAAAAAAAHgAQAAAADwDBgAQCAALAAACIAiFSEACAAAAgAAAICIEIAAgAABIAgQAEAAAAlgCIAAIYAAAPgAAAAAAAAAAAAAAAAAAAAAAAAAAAAA==

> <PUBCHEM_IUPAC_OPENEYE_NAME>
N-allyl-2,2-dimethyl-3-(2-methylprop-1-enyl)cyclopropanecarboxamide

> <PUBCHEM_IUPAC_CAS_NAME>
2,2-dimethyl-3-(2-methylprop-1-enyl)-N-prop-2-enyl-1-cyclopropanecarboxamide

> <PUBCHEM_IUPAC_NAME>
2,2-dimethyl-3-(2-methylprop-1-enyl)-N-prop-2-enylcyclopropane-1-carboxamide

> <PUBCHEM_IUPAC_SYSTEMATIC_NAME>
2,2-dimethyl-3-(2-methylprop-1-enyl)-N-prop-2-enyl-cyclopropane-1-carboxamide

> <PUBCHEM_IUPAC_TRADITIONAL_NAME>
N-allyl-2,2-dimethyl-3-(2-methylprop-1-enyl)cyclopropanecarboxamide

> <PUBCHEM_IUPAC_INCHI>
InChI=1S/C13H21NO/c1-6-7-14-12(15)11-10(8-9(2)3)13(11,4)5/h6,8,10-11H,1,7H2,2-5H3,(H,14,15)

> <PUBCHEM_IUPAC_INCHIKEY>
PFMUWFIFGQEAQH-UHFFFAOYSA-N

> <PUBCHEM_XLOGP3>
3.8

> <PUBCHEM_EXACT_MASS>
207.162314

> <PUBCHEM_MOLECULAR_FORMULA>
C13H21NO

> <PUBCHEM_MOLECULAR_WEIGHT>
207.31194

> <PUBCHEM_OPENEYE_CAN_SMILES>
CC(=CC1C(C1(C)C)C(=O)NCC=C)C

> <PUBCHEM_OPENEYE_ISO_SMILES>
CC(=CC1C(C1(C)C)C(=O)NCC=C)C

> <PUBCHEM_CACTVS_TPSA>
29.1

> <PUBCHEM_MONOISOTOPIC_WEIGHT>
207.162314

> <PUBCHEM_TOTAL_CHARGE>
0

> <PUBCHEM_HEAVY_ATOM_COUNT>
15

> <PUBCHEM_ATOM_DEF_STEREO_COUNT>
0

> <PUBCHEM_ATOM_UDEF_STEREO_COUNT>
2

> <PUBCHEM_BOND_DEF_STEREO_COUNT>
0

> <PUBCHEM_BOND_UDEF_STEREO_COUNT>
0

> <PUBCHEM_ISOTOPIC_ATOM_COUNT>
0

> <PUBCHEM_COMPONENT_COUNT>
1

> <PUBCHEM_CACTVS_TAUTO_COUNT>
2

> <PUBCHEM_COORDINATE_TYPE>
1
5
255

> <PUBCHEM_BONDANNOTATIONS>
4  8  3
5  9  3

$$$$
51113502
  -OEChem-11301218002D

 52 55  0     0  0  0  0  0  0999 V2000
    5.6103   -0.0573    0.0000 O   0  0  0  0  0  0  0  0  0  0  0  0
    7.2566   -0.5954    0.0000 N   0  0  0  0  0  0  0  0  0  0  0  0
    4.6783   -4.5184    0.0000 N   0  0  0  0  0  0  0  0  0  0  0  0
    8.1886    2.2561    0.0000 C   0  0  0  0  0  0  0  0  0  0  0  0
    7.5673    0.3551    0.0000 C   0  0  0  0  0  0  0  0  0  0  0  0
    8.8564    1.5118    0.0000 C   0  0  0  0  0  0  0  0  0  0  0  0
    7.2101    2.0499    0.0000 C   0  0  0  0  0  0  0  0  0  0  0  0
    6.8994    1.0994    0.0000 C   0  0  0  0  0  0  0  0  0  0  0  0
    8.5458    0.5613    0.0000 C   0  0  0  0  0  0  0  0  0  0  0  0
    8.4993    3.2066    0.0000 C   0  0  0  0  0  0  0  0  0  0  0  0
    6.2781   -0.8016    0.0000 C   0  0  0  0  0  0  0  0  0  0  0  0
    9.4778    3.4129    0.0000 C   0  0  0  0  0  0  0  0  0  0  0  0
    7.8314    3.9510    0.0000 C   0  0  0  0  0  0  0  0  0  0  0  0
    5.9674   -1.7522    0.0000 C   0  0  0  0  0  0  0  0  0  0  0  0
    4.9889   -1.9584    0.0000 C   0  0  0  0  0  0  0  0  0  0  0  0
    9.7884    4.3634    0.0000 C   0  0  0  0  0  0  0  0  0  0  0  0
    8.1421    4.9015    0.0000 C   0  0  0  0  0  0  0  0  0  0  0  0
    4.6783   -2.9089    0.0000 C   0  0  0  0  0  0  0  0  0  0  0  0
    9.1206    5.1077    0.0000 C   0  0  0  0  0  0  0  0  0  0  0  0
    3.7320   -3.2136    0.0000 C   0  0  0  0  0  0  0  0  0  0  0  0
    5.2619   -3.7136    0.0000 C   0  0  0  0  0  0  0  0  0  0  0  0
    3.7320   -4.2136    0.0000 C   0  0  0  0  0  0  0  0  0  0  0  0
    2.8660   -2.7136    0.0000 C   0  0  0  0  0  0  0  0  0  0  0  0
    2.8660   -4.7136    0.0000 C   0  0  0  0  0  0  0  0  0  0  0  0
    2.0000   -3.2136    0.0000 C   0  0  0  0  0  0  0  0  0  0  0  0
    2.0000   -4.2136    0.0000 C   0  0  0  0  0  0  0  0  0  0  0  0
    7.7745    2.7176    0.0000 H   0  0  0  0  0  0  0  0  0  0  0  0
    6.9606    0.2272    0.0000 H   0  0  0  0  0  0  0  0  0  0  0  0
    7.1895    2.6696    0.0000 H   0  0  0  0  0  0  0  0  0  0  0  0
    6.5963    2.1373    0.0000 H   0  0  0  0  0  0  0  0  0  0  0  0
    9.4034    1.2198    0.0000 H   0  0  0  0  0  0  0  0  0  0  0  0
    9.2390    1.9997    0.0000 H   0  0  0  0  0  0  0  0  0  0  0  0
    6.3525    1.3914    0.0000 H   0  0  0  0  0  0  0  0  0  0  0  0
    6.5169    0.6115    0.0000 H   0  0  0  0  0  0  0  0  0  0  0  0
    8.5663   -0.0583    0.0000 H   0  0  0  0  0  0  0  0  0  0  0  0
    9.1596    0.4740    0.0000 H   0  0  0  0  0  0  0  0  0  0  0  0
    7.6707   -1.0569    0.0000 H   0  0  0  0  0  0  0  0  0  0  0  0
    9.8918    2.9514    0.0000 H   0  0  0  0  0  0  0  0  0  0  0  0
    7.2247    3.8231    0.0000 H   0  0  0  0  0  0  0  0  0  0  0  0
    5.9880   -2.3718    0.0000 H   0  0  0  0  0  0  0  0  0  0  0  0
    6.5812   -1.8395    0.0000 H   0  0  0  0  0  0  0  0  0  0  0  0
    4.9684   -1.3387    0.0000 H   0  0  0  0  0  0  0  0  0  0  0  0
    4.3751   -1.8710    0.0000 H   0  0  0  0  0  0  0  0  0  0  0  0
   10.3951    4.4912    0.0000 H   0  0  0  0  0  0  0  0  0  0  0  0
    7.7280    5.3629    0.0000 H   0  0  0  0  0  0  0  0  0  0  0  0
    9.3132    5.6970    0.0000 H   0  0  0  0  0  0  0  0  0  0  0  0
    5.8819   -3.7136    0.0000 H   0  0  0  0  0  0  0  0  0  0  0  0
    4.8709   -5.1077    0.0000 H   0  0  0  0  0  0  0  0  0  0  0  0
    2.8660   -2.0936    0.0000 H   0  0  0  0  0  0  0  0  0  0  0  0
    2.8660   -5.3336    0.0000 H   0  0  0  0  0  0  0  0  0  0  0  0
    1.4631   -2.9036    0.0000 H   0  0  0  0  0  0  0  0  0  0  0  0
    1.4631   -4.5236    0.0000 H   0  0  0  0  0  0  0  0  0  0  0  0
  1 11  2  0  0  0  0
  2  5  1  0  0  0  0
  2 11  1  0  0  0  0
  2 37  1  0  0  0  0
  3 21  1  0  0  0  0
  3 22  1  0  0  0  0
  3 48  1  0  0  0  0
  4  6  1  0  0  0  0
  4  7  1  0  0  0  0
  4 10  1  0  0  0  0
  4 27  1  0  0  0  0
  5  8  1  0  0  0  0
  5  9  1  0  0  0  0
  5 28  1  0  0  0  0
  6  9  1  0  0  0  0
  6 31  1  0  0  0  0
  6 32  1  0  0  0  0
  7  8  1  0  0  0  0
  7 29  1  0  0  0  0
  7 30  1  0  0  0  0
  8 33  1  0  0  0  0
  8 34  1  0  0  0  0
  9 35  1  0  0  0  0
  9 36  1  0  0  0  0
 10 12  2  0  0  0  0
 10 13  1  0  0  0  0
 11 14  1  0  0  0  0
 12 16  1  0  0  0  0
 12 38  1  0  0  0  0
 13 17  2  0  0  0  0
 13 39  1  0  0  0  0
 14 15  1  0  0  0  0
 14 40  1  0  0  0  0
 14 41  1  0  0  0  0
 15 18  1  0  0  0  0
 15 42  1  0  0  0  0
 15 43  1  0  0  0  0
 16 19  2  0  0  0  0
 16 44  1  0  0  0  0
 17 19  1  0  0  0  0
 17 45  1  0  0  0  0
 18 20  1  0  0  0  0
 18 21  2  0  0  0  0
 19 46  1  0  0  0  0
 20 22  1  0  0  0  0
 20 23  2  0  0  0  0
 21 47  1  0  0  0  0
 22 24  2  0  0  0  0
 23 25  1  0  0  0  0
 23 49  1  0  0  0  0
 24 26  1  0  0  0  0
 24 50  1  0  0  0  0
 25 26  2  0  0  0  0
 25 51  1  0  0  0  0
 26 52  1  0  0  0  0
M  END
> <PUBCHEM_COMPOUND_CID>
51113502

> <PUBCHEM_COMPOUND_CANONICALIZED>
1

> <PUBCHEM_CACTVS_COMPLEXITY>
451

> <PUBCHEM_CACTVS_HBOND_ACCEPTOR>
1

> <PUBCHEM_CACTVS_HBOND_DONOR>
2

> <PUBCHEM_CACTVS_ROTATABLE_BOND>
5

> <PUBCHEM_CACTVS_SUBSKEYS>
AAADceB7IAAAAAAAAAAAAAAAAAAAAWAAAAAwYMAAAAAAAFgB9AAAHgAQAAAADSjBngQ8wPLJkACoAzV3VACCgCAxAiAI2aE4ZJgIIPLAkZGEIAhglgDIyAcYicCOgAAAAAACAAAQAAAAAAQAAAAAAAAAAA==

> <PUBCHEM_IUPAC_OPENEYE_NAME>
3-(1H-indol-3-yl)-N-(4-phenylcyclohexyl)propanamide

> <PUBCHEM_IUPAC_CAS_NAME>
3-(1H-indol-3-yl)-N-(4-phenylcyclohexyl)propanamide

> <PUBCHEM_IUPAC_NAME>
3-(1H-indol-3-yl)-N-(4-phenylcyclohexyl)propanamide

> <PUBCHEM_IUPAC_SYSTEMATIC_NAME>
3-(1H-indol-3-yl)-N-(4-phenylcyclohexyl)propanamide

> <PUBCHEM_IUPAC_TRADITIONAL_NAME>
3-(1H-indol-3-yl)-N-(4-phenylcyclohexyl)propionamide

> <PUBCHEM_IUPAC_INCHI>
InChI=1S/C23H26N2O/c26-23(15-12-19-16-24-22-9-5-4-8-21(19)22)25-20-13-10-18(11-14-20)17-6-2-1-3-7-17/h1-9,16,18,20,24H,10-15H2,(H,25,26)

> <PUBCHEM_IUPAC_INCHIKEY>
BOTPBJRSHURWLG-UHFFFAOYSA-N

> <PUBCHEM_XLOGP3>
4.5

> <PUBCHEM_EXACT_MASS>
346.204513

> <PUBCHEM_MOLECULAR_FORMULA>
C23H26N2O

> <PUBCHEM_MOLECULAR_WEIGHT>
346.46534

> <PUBCHEM_OPENEYE_CAN_SMILES>
C1CC(CCC1C2=CC=CC=C2)NC(=O)CCC3=CNC4=CC=CC=C43

> <PUBCHEM_OPENEYE_ISO_SMILES>
C1CC(CCC1C2=CC=CC=C2)NC(=O)CCC3=CNC4=CC=CC=C43

> <PUBCHEM_CACTVS_TPSA>
44.9

> <PUBCHEM_MONOISOTOPIC_WEIGHT>
346.204513

> <PUBCHEM_TOTAL_CHARGE>
0

> <PUBCHEM_HEAVY_ATOM_COUNT>
26

> <PUBCHEM_ATOM_DEF_STEREO_COUNT>
0

> <PUBCHEM_ATOM_UDEF_STEREO_COUNT>
0

> <PUBCHEM_BOND_DEF_STEREO_COUNT>
0

> <PUBCHEM_BOND_UDEF_STEREO_COUNT>
0

> <PUBCHEM_ISOTOPIC_ATOM_COUNT>
0

> <PUBCHEM_COMPONENT_COUNT>
1

> <PUBCHEM_CACTVS_TAUTO_COUNT>
2

> <PUBCHEM_COORDINATE_TYPE>
1
5
255

> <PUBCHEM_BONDANNOTATIONS>
10  12  8
10  13  8
12  16  8
13  17  8
16  19  8
17  19  8
18  20  8
18  21  8
20  22  8
20  23  8
22  24  8
23  25  8
24  26  8
25  26  8
3  21  8
3  22  8

$$$$
51114999
  -OEChem-11301218002D

 42 44  0     0  0  0  0  0  0999 V2000
    6.7619    2.3341    0.0000 O   0  0  0  0  0  0  0  0  0  0  0  0
    6.7619    0.6020    0.0000 N   0  0  0  0  0  0  0  0  0  0  0  0
    4.6783    2.2728    0.0000 N   0  0  0  0  0  0  0  0  0  0  0  0
    7.7619    0.6020    0.0000 C   0  0  0  0  0  0  0  0  0  0  0  0
    8.6279    1.1020    0.0000 C   0  0  0  0  0  0  0  0  0  0  0  0
    8.6279    0.1020    0.0000 C   0  0  0  0  0  0  0  0  0  0  0  0
    6.2619   -0.2640    0.0000 C   0  0  0  0  0  0  0  0  0  0  0  0
    6.7619   -1.1300    0.0000 C   0  0  0  0  0  0  0  0  0  0  0  0
    6.2619    1.4680    0.0000 C   0  0  0  0  0  0  0  0  0  0  0  0
    6.2619   -1.9961    0.0000 C   0  0  0  0  0  0  0  0  0  0  0  0
    5.2619    1.4680    0.0000 C   0  0  0  0  0  0  0  0  0  0  0  0
    6.7619   -2.8621    0.0000 C   0  0  0  0  0  0  0  0  0  0  0  0
    5.2619   -1.9961    0.0000 C   0  0  0  0  0  0  0  0  0  0  0  0
    4.6783    0.6633    0.0000 C   0  0  0  0  0  0  0  0  0  0  0  0
    3.7320    1.9680    0.0000 C   0  0  0  0  0  0  0  0  0  0  0  0
    3.7320    0.9680    0.0000 C   0  0  0  0  0  0  0  0  0  0  0  0
    2.8660    2.4680    0.0000 C   0  0  0  0  0  0  0  0  0  0  0  0
    2.8660    0.4680    0.0000 C   0  0  0  0  0  0  0  0  0  0  0  0
    2.0000    1.9680    0.0000 C   0  0  0  0  0  0  0  0  0  0  0  0
    2.0000    0.9680    0.0000 C   0  0  0  0  0  0  0  0  0  0  0  0
    7.6014    1.2009    0.0000 H   0  0  0  0  0  0  0  0  0  0  0  0
    9.2385    1.2097    0.0000 H   0  0  0  0  0  0  0  0  0  0  0  0
    8.4158    1.6846    0.0000 H   0  0  0  0  0  0  0  0  0  0  0  0
    8.4158   -0.4806    0.0000 H   0  0  0  0  0  0  0  0  0  0  0  0
    9.2385   -0.0057    0.0000 H   0  0  0  0  0  0  0  0  0  0  0  0
    5.7869    0.1345    0.0000 H   0  0  0  0  0  0  0  0  0  0  0  0
    5.7869   -0.6625    0.0000 H   0  0  0  0  0  0  0  0  0  0  0  0
    7.2368   -1.5286    0.0000 H   0  0  0  0  0  0  0  0  0  0  0  0
    7.2368   -0.7315    0.0000 H   0  0  0  0  0  0  0  0  0  0  0  0
    6.8819   -1.9961    0.0000 H   0  0  0  0  0  0  0  0  0  0  0  0
    5.2619   -1.3761    0.0000 H   0  0  0  0  0  0  0  0  0  0  0  0
    6.2249   -3.1721    0.0000 H   0  0  0  0  0  0  0  0  0  0  0  0
    7.0719   -3.3990    0.0000 H   0  0  0  0  0  0  0  0  0  0  0  0
    7.2988   -2.5521    0.0000 H   0  0  0  0  0  0  0  0  0  0  0  0
    4.6419   -1.9961    0.0000 H   0  0  0  0  0  0  0  0  0  0  0  0
    5.2619   -2.6161    0.0000 H   0  0  0  0  0  0  0  0  0  0  0  0
    4.8709    2.8621    0.0000 H   0  0  0  0  0  0  0  0  0  0  0  0
    4.8709    0.0740    0.0000 H   0  0  0  0  0  0  0  0  0  0  0  0
    2.8660    3.0880    0.0000 H   0  0  0  0  0  0  0  0  0  0  0  0
    2.8660   -0.1520    0.0000 H   0  0  0  0  0  0  0  0  0  0  0  0
    1.4631    2.2780    0.0000 H   0  0  0  0  0  0  0  0  0  0  0  0
    1.4631    0.6580    0.0000 H   0  0  0  0  0  0  0  0  0  0  0  0
  1  9  2  0  0  0  0
  2  4  1  0  0  0  0
  2  7  1  0  0  0  0
  2  9  1  0  0  0  0
  3 11  1  0  0  0  0
  3 15  1  0  0  0  0
  3 37  1  0  0  0  0
  4  5  1  0  0  0  0
  4  6  1  0  0  0  0
  4 21  1  0  0  0  0
  5  6  1  0  0  0  0
  5 22  1  0  0  0  0
  5 23  1  0  0  0  0
  6 24  1  0  0  0  0
  6 25  1  0  0  0  0
  7  8  1  0  0  0  0
  7 26  1  0  0  0  0
  7 27  1  0  0  0  0
  8 10  1  0  0  0  0
  8 28  1  0  0  0  0
  8 29  1  0  0  0  0
  9 11  1  0  0  0  0
 10 12  1  0  0  0  0
 10 13  1  0  0  0  0
 10 30  1  0  0  0  0
 11 14  2  0  0  0  0
 12 32  1  0  0  0  0
 12 33  1  0  0  0  0
 12 34  1  0  0  0  0
 13 31  1  0  0  0  0
 13 35  1  0  0  0  0
 13 36  1  0  0  0  0
 14 16  1  0  0  0  0
 14 38  1  0  0  0  0
 15 16  1  0  0  0  0
 15 17  2  0  0  0  0
 16 18  2  0  0  0  0
 17 19  1  0  0  0  0
 17 39  1  0  0  0  0
 18 20  1  0  0  0  0
 18 40  1  0  0  0  0
 19 20  2  0  0  0  0
 19 41  1  0  0  0  0
 20 42  1  0  0  0  0
M  END
> <PUBCHEM_COMPOUND_CID>
51114999

> <PUBCHEM_COMPOUND_CANONICALIZED>
1

> <PUBCHEM_CACTVS_COMPLEXITY>
351

> <PUBCHEM_CACTVS_HBOND_ACCEPTOR>
1

> <PUBCHEM_CACTVS_HBOND_DONOR>
1

> <PUBCHEM_CACTVS_ROTATABLE_BOND>
5

> <PUBCHEM_CACTVS_SUBSKEYS>
AAADceB7IAAAAAAAAAAAAAAAGAAAAWAAAAAwAAAAAAAAAFgB8AAAHgAQAAAADSjBngQywPPJkACoAyVyVACCgCAnAiAImSG4ZNgIYPLAlbGUIQhglgDIyYcYiYCeAAAAAAACAAAAAAAAAAQAAAAAAAAAAA==

> <PUBCHEM_IUPAC_OPENEYE_NAME>
N-cyclopropyl-N-isopentyl-1H-indole-2-carboxamide

> <PUBCHEM_IUPAC_CAS_NAME>
N-cyclopropyl-N-(3-methylbutyl)-1H-indole-2-carboxamide

> <PUBCHEM_IUPAC_NAME>
N-cyclopropyl-N-(3-methylbutyl)-1H-indole-2-carboxamide

> <PUBCHEM_IUPAC_SYSTEMATIC_NAME>
N-cyclopropyl-N-(3-methylbutyl)-1H-indole-2-carboxamide

> <PUBCHEM_IUPAC_TRADITIONAL_NAME>
N-cyclopropyl-N-isoamyl-1H-indole-2-carboxamide

> <PUBCHEM_IUPAC_INCHI>
InChI=1S/C17H22N2O/c1-12(2)9-10-19(14-7-8-14)17(20)16-11-13-5-3-4-6-15(13)18-16/h3-6,11-12,14,18H,7-10H2,1-2H3

> <PUBCHEM_IUPAC_INCHIKEY>
OCDXSIJNOFJRNJ-UHFFFAOYSA-N

> <PUBCHEM_XLOGP3>
4.5

> <PUBCHEM_EXACT_MASS>
270.173213

> <PUBCHEM_MOLECULAR_FORMULA>
C17H22N2O

> <PUBCHEM_MOLECULAR_WEIGHT>
270.36938

> <PUBCHEM_OPENEYE_CAN_SMILES>
CC(C)CCN(C1CC1)C(=O)C2=CC3=CC=CC=C3N2

> <PUBCHEM_OPENEYE_ISO_SMILES>
CC(C)CCN(C1CC1)C(=O)C2=CC3=CC=CC=C3N2

> <PUBCHEM_CACTVS_TPSA>
36.1

> <PUBCHEM_MONOISOTOPIC_WEIGHT>
270.173213

> <PUBCHEM_TOTAL_CHARGE>
0

> <PUBCHEM_HEAVY_ATOM_COUNT>
20

> <PUBCHEM_ATOM_DEF_STEREO_COUNT>
0

> <PUBCHEM_ATOM_UDEF_STEREO_COUNT>
0

> <PUBCHEM_BOND_DEF_STEREO_COUNT>
0

> <PUBCHEM_BOND_UDEF_STEREO_COUNT>
0

> <PUBCHEM_ISOTOPIC_ATOM_COUNT>
0

> <PUBCHEM_COMPONENT_COUNT>
1

> <PUBCHEM_CACTVS_TAUTO_COUNT>
6

> <PUBCHEM_COORDINATE_TYPE>
1
5
255

> <PUBCHEM_BONDANNOTATIONS>
11  14  8
14  16  8
15  16  8
15  17  8
16  18  8
17  19  8
18  20  8
19  20  8
3  11  8
3  15  8

$$$$
