17555841
  -OEChem-11301217212D

 41 43  0     0  0  0  0  0  0999 V2000
    7.1962    3.7500    0.0000 Cl  0  0  0  0  0  0  0  0  0  0  0  0
    2.0000    2.7500    0.0000 O   0  0  0  0  0  0  0  0  0  0  0  0
    3.7320    2.7500    0.0000 N   0  0  0  0  0  0  0  0  0  0  0  0
    3.7320    3.7500    0.0000 C   0  0  0  0  0  0  0  0  0  0  0  0
    4.5981    4.2500    0.0000 C   0  0  0  0  0  0  0  0  0  0  0  0
    2.8660    1.2500    0.0000 C   0  0  0  0  0  0  0  0  0  0  0  0
    2.8660    2.2500    0.0000 C   0  0  0  0  0  0  0  0  0  0  0  0
    5.4641    3.7500    0.0000 C   0  0  0  0  0  0  0  0  0  0  0  0
    4.5981    5.2500    0.0000 C   0  0  0  0  0  0  0  0  0  0  0  0
    2.0000    0.7500    0.0000 C   0  0  0  0  0  0  0  0  0  0  0  0
    3.7320    0.7500    0.0000 C   0  0  0  0  0  0  0  0  0  0  0  0
    6.3301    4.2500    0.0000 C   0  0  0  0  0  0  0  0  0  0  0  0
    5.4641    5.7500    0.0000 C   0  0  0  0  0  0  0  0  0  0  0  0
    2.8660   -0.7500    0.0000 C   0  0  0  0  0  0  0  0  0  0  0  0
    2.0000   -0.2500    0.0000 C   0  0  0  0  0  0  0  0  0  0  0  0
    3.7320   -0.2500    0.0000 C   0  0  0  0  0  0  0  0  0  0  0  0
    6.3301    5.2500    0.0000 C   0  0  0  0  0  0  0  0  0  0  0  0
    2.8660   -1.7500    0.0000 C   0  0  0  0  0  0  0  0  0  0  0  0
    2.8660   -3.7500    0.0000 C   0  0  0  0  0  0  0  0  0  0  0  0
    2.0000   -4.2500    0.0000 C   0  0  0  0  0  0  0  0  0  0  0  0
    3.7320   -4.2500    0.0000 C   0  0  0  0  0  0  0  0  0  0  0  0
    2.8660   -2.7500    0.0000 C   0  0  0  0  0  0  0  0  0  0  0  0
    2.0000   -5.2500    0.0000 C   0  0  0  0  0  0  0  0  0  0  0  0
    3.7320   -5.2500    0.0000 C   0  0  0  0  0  0  0  0  0  0  0  0
    2.8660   -5.7500    0.0000 C   0  0  0  0  0  0  0  0  0  0  0  0
    3.5200    4.3326    0.0000 H   0  0  0  0  0  0  0  0  0  0  0  0
    3.1215    3.6423    0.0000 H   0  0  0  0  0  0  0  0  0  0  0  0
    4.2690    2.4400    0.0000 H   0  0  0  0  0  0  0  0  0  0  0  0
    5.4641    3.1300    0.0000 H   0  0  0  0  0  0  0  0  0  0  0  0
    4.0611    5.5600    0.0000 H   0  0  0  0  0  0  0  0  0  0  0  0
    1.4631    1.0600    0.0000 H   0  0  0  0  0  0  0  0  0  0  0  0
    4.2690    1.0600    0.0000 H   0  0  0  0  0  0  0  0  0  0  0  0
    5.4641    6.3700    0.0000 H   0  0  0  0  0  0  0  0  0  0  0  0
    1.4631   -0.5600    0.0000 H   0  0  0  0  0  0  0  0  0  0  0  0
    4.2690   -0.5600    0.0000 H   0  0  0  0  0  0  0  0  0  0  0  0
    6.8671    5.5600    0.0000 H   0  0  0  0  0  0  0  0  0  0  0  0
    1.4631   -3.9400    0.0000 H   0  0  0  0  0  0  0  0  0  0  0  0
    4.2690   -3.9400    0.0000 H   0  0  0  0  0  0  0  0  0  0  0  0
    1.4631   -5.5600    0.0000 H   0  0  0  0  0  0  0  0  0  0  0  0
    4.2690   -5.5600    0.0000 H   0  0  0  0  0  0  0  0  0  0  0  0
    2.8660   -6.3700    0.0000 H   0  0  0  0  0  0  0  0  0  0  0  0
  1 12  1  0  0  0  0
  2  7  2  0  0  0  0
  3  4  1  0  0  0  0
  3  7  1  0  0  0  0
  3 28  1  0  0  0  0
  4  5  1  0  0  0  0
  4 26  1  0  0  0  0
  4 27  1  0  0  0  0
  5  8  2  0  0  0  0
  5  9  1  0  0  0  0
  6  7  1  0  0  0  0
  6 10  2  0  0  0  0
  6 11  1  0  0  0  0
  8 12  1  0  0  0  0
  8 29  1  0  0  0  0
  9 13  2  0  0  0  0
  9 30  1  0  0  0  0
 10 15  1  0  0  0  0
 10 31  1  0  0  0  0
 11 16  2  0  0  0  0
 11 32  1  0  0  0  0
 12 17  2  0  0  0  0
 13 17  1  0  0  0  0
 13 33  1  0  0  0  0
 14 15  2  0  0  0  0
 14 16  1  0  0  0  0
 14 18  1  0  0  0  0
 15 34  1  0  0  0  0
 16 35  1  0  0  0  0
 17 36  1  0  0  0  0
 18 22  3  0  0  0  0
 19 20  2  0  0  0  0
 19 21  1  0  0  0  0
 19 22  1  0  0  0  0
 20 23  1  0  0  0  0
 20 37  1  0  0  0  0
 21 24  2  0  0  0  0
 21 38  1  0  0  0  0
 23 25  2  0  0  0  0
 23 39  1  0  0  0  0
 24 25  1  0  0  0  0
 24 40  1  0  0  0  0
 25 41  1  0  0  0  0
M  END
> <PUBCHEM_COMPOUND_CID>
17555841

> <PUBCHEM_COMPOUND_CANONICALIZED>
1

> <PUBCHEM_CACTVS_COMPLEXITY>
491

> <PUBCHEM_CACTVS_HBOND_ACCEPTOR>
1

> <PUBCHEM_CACTVS_HBOND_DONOR>
1

> <PUBCHEM_CACTVS_ROTATABLE_BOND>
5

> <PUBCHEM_CACTVS_SUBSKEYS>
AAADceB6IAAEAAAAAAAAAAAAAAAAAAAAAAAwYMAAAAAAAAABUAAAHgIQAAAADALBmCQwAILAAADIEiFSEAiCAAAkBQAIiIEIBsgIIDKBlxGEIQhghgCIiYcYiACOQAAAIAAAAACAAABAAAAAAAAAAAAAAA==

> <PUBCHEM_IUPAC_OPENEYE_NAME>
N-[(3-chlorophenyl)methyl]-4-(2-phenylethynyl)benzamide

> <PUBCHEM_IUPAC_CAS_NAME>
N-[(3-chlorophenyl)methyl]-4-(2-phenylethynyl)benzamide

> <PUBCHEM_IUPAC_NAME>
N-[(3-chlorophenyl)methyl]-4-(2-phenylethynyl)benzamide

> <PUBCHEM_IUPAC_SYSTEMATIC_NAME>
N-[(3-chlorophenyl)methyl]-4-(2-phenylethynyl)benzamide

> <PUBCHEM_IUPAC_TRADITIONAL_NAME>
N-(3-chlorobenzyl)-4-(2-phenylethynyl)benzamide

> <PUBCHEM_IUPAC_INCHI>
InChI=1S/C22H16ClNO/c23-21-8-4-7-19(15-21)16-24-22(25)20-13-11-18(12-14-20)10-9-17-5-2-1-3-6-17/h1-8,11-15H,16H2,(H,24,25)

> <PUBCHEM_IUPAC_INCHIKEY>
HDWPPIYNCYNDKC-UHFFFAOYSA-N

> <PUBCHEM_XLOGP3>
4.9

> <PUBCHEM_EXACT_MASS>
345.092042

> <PUBCHEM_MOLECULAR_FORMULA>
C22H16ClNO

> <PUBCHEM_MOLECULAR_WEIGHT>
345.82154

> <PUBCHEM_OPENEYE_CAN_SMILES>
C1=CC=C(C=C1)C#CC2=CC=C(C=C2)C(=O)NCC3=CC(=CC=C3)Cl

> <PUBCHEM_OPENEYE_ISO_SMILES>
C1=CC=C(C=C1)C#CC2=CC=C(C=C2)C(=O)NCC3=CC(=CC=C3)Cl

> <PUBCHEM_CACTVS_TPSA>
29.1

> <PUBCHEM_MONOISOTOPIC_WEIGHT>
345.092042

> <PUBCHEM_TOTAL_CHARGE>
0

> <PUBCHEM_HEAVY_ATOM_COUNT>
25

> <PUBCHEM_ATOM_DEF_STEREO_COUNT>
0

> <PUBCHEM_ATOM_UDEF_STEREO_COUNT>
0

> <PUBCHEM_BOND_DEF_STEREO_COUNT>
0

> <PUBCHEM_BOND_UDEF_STEREO_COUNT>
0

> <PUBCHEM_ISOTOPIC_ATOM_COUNT>
0

> <PUBCHEM_COMPONENT_COUNT>
1

> <PUBCHEM_CACTVS_TAUTO_COUNT>
2

> <PUBCHEM_COORDINATE_TYPE>
1
5
255

> <PUBCHEM_BONDANNOTATIONS>
10  15  8
11  16  8
12  17  8
13  17  8
14  15  8
14  16  8
19  20  8
19  21  8
20  23  8
21  24  8
23  25  8
24  25  8
5  8  8
5  9  8
6  10  8
6  11  8
8  12  8
9  13  8

$$$$
17560706
  -OEChem-11301217222D

 38 40  0     0  0  0  0  0  0999 V2000
    5.4641    3.7500    0.0000 Cl  0  0  0  0  0  0  0  0  0  0  0  0
    2.0000    2.7500    0.0000 O   0  0  0  0  0  0  0  0  0  0  0  0
    3.7320    2.7500    0.0000 N   0  0  0  0  0  0  0  0  0  0  0  0
    2.8660    1.2500    0.0000 C   0  0  0  0  0  0  0  0  0  0  0  0
    3.7320    3.7500    0.0000 C   0  0  0  0  0  0  0  0  0  0  0  0
    2.8660    2.2500    0.0000 C   0  0  0  0  0  0  0  0  0  0  0  0
    2.0000    0.7500    0.0000 C   0  0  0  0  0  0  0  0  0  0  0  0
    3.7320    0.7500    0.0000 C   0  0  0  0  0  0  0  0  0  0  0  0
    2.8660   -0.7500    0.0000 C   0  0  0  0  0  0  0  0  0  0  0  0
    2.0000   -0.2500    0.0000 C   0  0  0  0  0  0  0  0  0  0  0  0
    3.7320   -0.2500    0.0000 C   0  0  0  0  0  0  0  0  0  0  0  0
    4.5981    4.2500    0.0000 C   0  0  0  0  0  0  0  0  0  0  0  0
    2.8660    4.2500    0.0000 C   0  0  0  0  0  0  0  0  0  0  0  0
    4.5981    5.2500    0.0000 C   0  0  0  0  0  0  0  0  0  0  0  0
    2.8660    5.2500    0.0000 C   0  0  0  0  0  0  0  0  0  0  0  0
    3.7320    5.7500    0.0000 C   0  0  0  0  0  0  0  0  0  0  0  0
    2.8660   -3.7500    0.0000 C   0  0  0  0  0  0  0  0  0  0  0  0
    2.8660   -1.7500    0.0000 C   0  0  0  0  0  0  0  0  0  0  0  0
    2.0000   -4.2500    0.0000 C   0  0  0  0  0  0  0  0  0  0  0  0
    3.7320   -4.2500    0.0000 C   0  0  0  0  0  0  0  0  0  0  0  0
    2.8660   -2.7500    0.0000 C   0  0  0  0  0  0  0  0  0  0  0  0
    2.0000   -5.2500    0.0000 C   0  0  0  0  0  0  0  0  0  0  0  0
    3.7320   -5.2500    0.0000 C   0  0  0  0  0  0  0  0  0  0  0  0
    2.8660   -5.7500    0.0000 C   0  0  0  0  0  0  0  0  0  0  0  0
    4.2690    2.4400    0.0000 H   0  0  0  0  0  0  0  0  0  0  0  0
    1.4631    1.0600    0.0000 H   0  0  0  0  0  0  0  0  0  0  0  0
    4.2690    1.0600    0.0000 H   0  0  0  0  0  0  0  0  0  0  0  0
    1.4631   -0.5600    0.0000 H   0  0  0  0  0  0  0  0  0  0  0  0
    4.2690   -0.5600    0.0000 H   0  0  0  0  0  0  0  0  0  0  0  0
    2.3291    3.9400    0.0000 H   0  0  0  0  0  0  0  0  0  0  0  0
    5.1350    5.5600    0.0000 H   0  0  0  0  0  0  0  0  0  0  0  0
    2.3291    5.5600    0.0000 H   0  0  0  0  0  0  0  0  0  0  0  0
    3.7320    6.3700    0.0000 H   0  0  0  0  0  0  0  0  0  0  0  0
    1.4631   -3.9400    0.0000 H   0  0  0  0  0  0  0  0  0  0  0  0
    4.2690   -3.9400    0.0000 H   0  0  0  0  0  0  0  0  0  0  0  0
    1.4631   -5.5600    0.0000 H   0  0  0  0  0  0  0  0  0  0  0  0
    4.2690   -5.5600    0.0000 H   0  0  0  0  0  0  0  0  0  0  0  0
    2.8660   -6.3700    0.0000 H   0  0  0  0  0  0  0  0  0  0  0  0
  1 12  1  0  0  0  0
  2  6  2  0  0  0  0
  3  5  1  0  0  0  0
  3  6  1  0  0  0  0
  3 25  1  0  0  0  0
  4  6  1  0  0  0  0
  4  7  2  0  0  0  0
  4  8  1  0  0  0  0
  5 12  1  0  0  0  0
  5 13  2  0  0  0  0
  7 10  1  0  0  0  0
  7 26  1  0  0  0  0
  8 11  2  0  0  0  0
  8 27  1  0  0  0  0
  9 10  2  0  0  0  0
  9 11  1  0  0  0  0
  9 18  1  0  0  0  0
 10 28  1  0  0  0  0
 11 29  1  0  0  0  0
 12 14  2  0  0  0  0
 13 15  1  0  0  0  0
 13 30  1  0  0  0  0
 14 16  1  0  0  0  0
 14 31  1  0  0  0  0
 15 16  2  0  0  0  0
 15 32  1  0  0  0  0
 16 33  1  0  0  0  0
 17 19  2  0  0  0  0
 17 20  1  0  0  0  0
 17 21  1  0  0  0  0
 18 21  3  0  0  0  0
 19 22  1  0  0  0  0
 19 34  1  0  0  0  0
 20 23  2  0  0  0  0
 20 35  1  0  0  0  0
 22 24  2  0  0  0  0
 22 36  1  0  0  0  0
 23 24  1  0  0  0  0
 23 37  1  0  0  0  0
 24 38  1  0  0  0  0
M  END
> <PUBCHEM_COMPOUND_CID>
17560706

> <PUBCHEM_COMPOUND_CANONICALIZED>
1

> <PUBCHEM_CACTVS_COMPLEXITY>
477

> <PUBCHEM_CACTVS_HBOND_ACCEPTOR>
1

> <PUBCHEM_CACTVS_HBOND_DONOR>
1

> <PUBCHEM_CACTVS_ROTATABLE_BOND>
4

> <PUBCHEM_CACTVS_SUBSKEYS>
AAADccB6IAAEAAAAAAAAAAAAAAAAAAAAAAAwYMAAAAAAAAABUAAAHgIQAAAADAqBmCAwwILAAADIEiVSUAiCAAAlBwAIiAEAZsgIIDLBl5HEIQhglADIyYcYiACOQAAAAAAAABCAAAAAAAAAIAAAAAAAAA==

> <PUBCHEM_IUPAC_OPENEYE_NAME>
N-(2-chlorophenyl)-4-(2-phenylethynyl)benzamide

> <PUBCHEM_IUPAC_CAS_NAME>
N-(2-chlorophenyl)-4-(2-phenylethynyl)benzamide

> <PUBCHEM_IUPAC_NAME>
N-(2-chlorophenyl)-4-(2-phenylethynyl)benzamide

> <PUBCHEM_IUPAC_SYSTEMATIC_NAME>
N-(2-chlorophenyl)-4-(2-phenylethynyl)benzamide

> <PUBCHEM_IUPAC_TRADITIONAL_NAME>
N-(2-chlorophenyl)-4-(2-phenylethynyl)benzamide

> <PUBCHEM_IUPAC_INCHI>
InChI=1S/C21H14ClNO/c22-19-8-4-5-9-20(19)23-21(24)18-14-12-17(13-15-18)11-10-16-6-2-1-3-7-16/h1-9,12-15H,(H,23,24)

> <PUBCHEM_IUPAC_INCHIKEY>
YWQWBAAEXBUHKW-UHFFFAOYSA-N

> <PUBCHEM_XLOGP3>
5

> <PUBCHEM_EXACT_MASS>
331.076392

> <PUBCHEM_MOLECULAR_FORMULA>
C21H14ClNO

> <PUBCHEM_MOLECULAR_WEIGHT>
331.79496

> <PUBCHEM_OPENEYE_CAN_SMILES>
C1=CC=C(C=C1)C#CC2=CC=C(C=C2)C(=O)NC3=CC=CC=C3Cl

> <PUBCHEM_OPENEYE_ISO_SMILES>
C1=CC=C(C=C1)C#CC2=CC=C(C=C2)C(=O)NC3=CC=CC=C3Cl

> <PUBCHEM_CACTVS_TPSA>
29.1

> <PUBCHEM_MONOISOTOPIC_WEIGHT>
331.076392

> <PUBCHEM_TOTAL_CHARGE>
0

> <PUBCHEM_HEAVY_ATOM_COUNT>
24

> <PUBCHEM_ATOM_DEF_STEREO_COUNT>
0

> <PUBCHEM_ATOM_UDEF_STEREO_COUNT>
0

> <PUBCHEM_BOND_DEF_STEREO_COUNT>
0

> <PUBCHEM_BOND_UDEF_STEREO_COUNT>
0

> <PUBCHEM_ISOTOPIC_ATOM_COUNT>
0

> <PUBCHEM_COMPONENT_COUNT>
1

> <PUBCHEM_CACTVS_TAUTO_COUNT>
2

> <PUBCHEM_COORDINATE_TYPE>
1
5
255

> <PUBCHEM_BONDANNOTATIONS>
12  14  8
13  15  8
14  16  8
15  16  8
17  19  8
17  20  8
19  22  8
20  23  8
22  24  8
23  24  8
4  7  8
4  8  8
5  12  8
5  13  8
7  10  8
8  11  8
9  10  8
9  11  8

$$$$
17560735
  -OEChem-11301217222D

 26 26  0     0  0  0  0  0  0999 V2000
    2.8660    1.3450    0.0000 O   0  0  0  0  0  0  0  0  0  0  0  0
    3.7320   -0.1550    0.0000 N   0  0  0  0  0  0  0  0  0  0  0  0
    4.5981    1.3450    0.0000 N   0  0  0  0  0  0  0  0  0  0  0  0
    2.8660   -0.6550    0.0000 C   0  0  0  0  0  0  0  0  0  0  0  0
    2.8660   -1.6550    0.0000 C   0  0  0  0  0  0  0  0  0  0  0  0
    2.0000   -2.1550    0.0000 C   0  0  0  0  0  0  0  0  0  0  0  0
    3.7320   -2.1550    0.0000 C   0  0  0  0  0  0  0  0  0  0  0  0
    2.0000   -3.1550    0.0000 C   0  0  0  0  0  0  0  0  0  0  0  0
    3.7320   -3.1550    0.0000 C   0  0  0  0  0  0  0  0  0  0  0  0
    3.7320    0.8450    0.0000 C   0  0  0  0  0  0  0  0  0  0  0  0
    2.8660   -3.6550    0.0000 C   0  0  0  0  0  0  0  0  0  0  0  0
    4.5981    2.3450    0.0000 C   0  0  0  0  0  0  0  0  0  0  0  0
    5.4641    2.8450    0.0000 C   0  0  0  0  0  0  0  0  0  0  0  0
    6.3301    3.3450    0.0000 C   0  0  0  0  0  0  0  0  0  0  0  0
    2.6540   -0.0724    0.0000 H   0  0  0  0  0  0  0  0  0  0  0  0
    2.2554   -0.7627    0.0000 H   0  0  0  0  0  0  0  0  0  0  0  0
    4.2690   -0.4650    0.0000 H   0  0  0  0  0  0  0  0  0  0  0  0
    1.4631   -1.8450    0.0000 H   0  0  0  0  0  0  0  0  0  0  0  0
    4.2690   -1.8450    0.0000 H   0  0  0  0  0  0  0  0  0  0  0  0
    1.4631   -3.4650    0.0000 H   0  0  0  0  0  0  0  0  0  0  0  0
    4.2690   -3.4650    0.0000 H   0  0  0  0  0  0  0  0  0  0  0  0
    2.8660   -4.2750    0.0000 H   0  0  0  0  0  0  0  0  0  0  0  0
    5.1350    1.0350    0.0000 H   0  0  0  0  0  0  0  0  0  0  0  0
    4.3860    2.9276    0.0000 H   0  0  0  0  0  0  0  0  0  0  0  0
    3.9875    2.2373    0.0000 H   0  0  0  0  0  0  0  0  0  0  0  0
    6.8671    3.6550    0.0000 H   0  0  0  0  0  0  0  0  0  0  0  0
  1 10  2  0  0  0  0
  2  4  1  0  0  0  0
  2 10  1  0  0  0  0
  2 17  1  0  0  0  0
  3 10  1  0  0  0  0
  3 12  1  0  0  0  0
  3 23  1  0  0  0  0
  4  5  1  0  0  0  0
  4 15  1  0  0  0  0
  4 16  1  0  0  0  0
  5  6  2  0  0  0  0
  5  7  1  0  0  0  0
  6  8  1  0  0  0  0
  6 18  1  0  0  0  0
  7  9  2  0  0  0  0
  7 19  1  0  0  0  0
  8 11  2  0  0  0  0
  8 20  1  0  0  0  0
  9 11  1  0  0  0  0
  9 21  1  0  0  0  0
 11 22  1  0  0  0  0
 12 13  1  0  0  0  0
 12 24  1  0  0  0  0
 12 25  1  0  0  0  0
 13 14  3  0  0  0  0
 14 26  1  0  0  0  0
M  END
> <PUBCHEM_COMPOUND_CID>
17560735

> <PUBCHEM_COMPOUND_CANONICALIZED>
1

> <PUBCHEM_CACTVS_COMPLEXITY>
223

> <PUBCHEM_CACTVS_HBOND_ACCEPTOR>
1

> <PUBCHEM_CACTVS_HBOND_DONOR>
2

> <PUBCHEM_CACTVS_ROTATABLE_BOND>
3

> <PUBCHEM_CACTVS_SUBSKEYS>
AAADccBzIAAAAAAAAAAAAAAAAAAAAAAAAAAwAAAAAAAAAAABAAAAHgAQAAAADADBGAQxAILAAADIGiBCEACCAAAgAAAIiIAIBIiIICKAkRGEIAhohgIIiAcQgAAOAAAAAAAAAAAAAAAAAAAAAAAAAAAAAA==

> <PUBCHEM_IUPAC_OPENEYE_NAME>
1-benzyl-3-prop-2-ynyl-urea

> <PUBCHEM_IUPAC_CAS_NAME>
1-(phenylmethyl)-3-prop-2-ynylurea

> <PUBCHEM_IUPAC_NAME>
1-benzyl-3-prop-2-ynylurea

> <PUBCHEM_IUPAC_SYSTEMATIC_NAME>
1-(phenylmethyl)-3-prop-2-ynyl-urea

> <PUBCHEM_IUPAC_TRADITIONAL_NAME>
1-benzyl-3-propargyl-urea

> <PUBCHEM_IUPAC_INCHI>
InChI=1S/C11H12N2O/c1-2-8-12-11(14)13-9-10-6-4-3-5-7-10/h1,3-7H,8-9H2,(H2,12,13,14)

> <PUBCHEM_IUPAC_INCHIKEY>
FHCYSUZKPOUSDP-UHFFFAOYSA-N

> <PUBCHEM_XLOGP3>
0.9

> <PUBCHEM_EXACT_MASS>
188.094963

> <PUBCHEM_MOLECULAR_FORMULA>
C11H12N2O

> <PUBCHEM_MOLECULAR_WEIGHT>
188.22578

> <PUBCHEM_OPENEYE_CAN_SMILES>
C#CCNC(=O)NCC1=CC=CC=C1

> <PUBCHEM_OPENEYE_ISO_SMILES>
C#CCNC(=O)NCC1=CC=CC=C1

> <PUBCHEM_CACTVS_TPSA>
41.1

> <PUBCHEM_MONOISOTOPIC_WEIGHT>
188.094963

> <PUBCHEM_TOTAL_CHARGE>
0

> <PUBCHEM_HEAVY_ATOM_COUNT>
14

> <PUBCHEM_ATOM_DEF_STEREO_COUNT>
0

> <PUBCHEM_ATOM_UDEF_STEREO_COUNT>
0

> <PUBCHEM_BOND_DEF_STEREO_COUNT>
0

> <PUBCHEM_BOND_UDEF_STEREO_COUNT>
0

> <PUBCHEM_ISOTOPIC_ATOM_COUNT>
0

> <PUBCHEM_COMPONENT_COUNT>
1

> <PUBCHEM_CACTVS_TAUTO_COUNT>
3

> <PUBCHEM_COORDINATE_TYPE>
1
5
255

> <PUBCHEM_BONDANNOTATIONS>
5  6  8
5  7  8
6  8  8
7  9  8
8  11  8
9  11  8

$$$$
17564861
  -OEChem-11301217222D

 44 46  0     0  0  0  0  0  0999 V2000
    2.0000    2.7500    0.0000 O   0  0  0  0  0  0  0  0  0  0  0  0
    3.7320    2.7500    0.0000 N   0  0  0  0  0  0  0  0  0  0  0  0
    4.5981    4.2500    0.0000 C   0  0  0  0  0  0  0  0  0  0  0  0
    3.7320    3.7500    0.0000 C   0  0  0  0  0  0  0  0  0  0  0  0
    5.4641    3.7500    0.0000 C   0  0  0  0  0  0  0  0  0  0  0  0
    4.5981    5.2500    0.0000 C   0  0  0  0  0  0  0  0  0  0  0  0
    6.3301    5.2500    0.0000 C   0  0  0  0  0  0  0  0  0  0  0  0
    6.3301    4.2500    0.0000 C   0  0  0  0  0  0  0  0  0  0  0  0
    5.4641    5.7500    0.0000 C   0  0  0  0  0  0  0  0  0  0  0  0
    2.8660    1.2500    0.0000 C   0  0  0  0  0  0  0  0  0  0  0  0
    2.8660    2.2500    0.0000 C   0  0  0  0  0  0  0  0  0  0  0  0
    7.1962    5.7500    0.0000 C   0  0  0  0  0  0  0  0  0  0  0  0
    2.0000    0.7500    0.0000 C   0  0  0  0  0  0  0  0  0  0  0  0
    3.7320    0.7500    0.0000 C   0  0  0  0  0  0  0  0  0  0  0  0
    2.8660   -0.7500    0.0000 C   0  0  0  0  0  0  0  0  0  0  0  0
    2.0000   -0.2500    0.0000 C   0  0  0  0  0  0  0  0  0  0  0  0
    3.7320   -0.2500    0.0000 C   0  0  0  0  0  0  0  0  0  0  0  0
    2.8660   -1.7500    0.0000 C   0  0  0  0  0  0  0  0  0  0  0  0
    2.8660   -3.7500    0.0000 C   0  0  0  0  0  0  0  0  0  0  0  0
    2.0000   -4.2500    0.0000 C   0  0  0  0  0  0  0  0  0  0  0  0
    3.7320   -4.2500    0.0000 C   0  0  0  0  0  0  0  0  0  0  0  0
    2.8660   -2.7500    0.0000 C   0  0  0  0  0  0  0  0  0  0  0  0
    2.0000   -5.2500    0.0000 C   0  0  0  0  0  0  0  0  0  0  0  0
    3.7320   -5.2500    0.0000 C   0  0  0  0  0  0  0  0  0  0  0  0
    2.8660   -5.7500    0.0000 C   0  0  0  0  0  0  0  0  0  0  0  0
    3.5200    4.3326    0.0000 H   0  0  0  0  0  0  0  0  0  0  0  0
    3.1215    3.6423    0.0000 H   0  0  0  0  0  0  0  0  0  0  0  0
    5.4641    3.1300    0.0000 H   0  0  0  0  0  0  0  0  0  0  0  0
    4.0611    5.5600    0.0000 H   0  0  0  0  0  0  0  0  0  0  0  0
    4.2690    2.4400    0.0000 H   0  0  0  0  0  0  0  0  0  0  0  0
    6.8671    3.9400    0.0000 H   0  0  0  0  0  0  0  0  0  0  0  0
    5.4641    6.3700    0.0000 H   0  0  0  0  0  0  0  0  0  0  0  0
    7.5062    5.2131    0.0000 H   0  0  0  0  0  0  0  0  0  0  0  0
    7.7331    6.0600    0.0000 H   0  0  0  0  0  0  0  0  0  0  0  0
    6.8862    6.2869    0.0000 H   0  0  0  0  0  0  0  0  0  0  0  0
    1.4631    1.0600    0.0000 H   0  0  0  0  0  0  0  0  0  0  0  0
    4.2690    1.0600    0.0000 H   0  0  0  0  0  0  0  0  0  0  0  0
    1.4631   -0.5600    0.0000 H   0  0  0  0  0  0  0  0  0  0  0  0
    4.2690   -0.5600    0.0000 H   0  0  0  0  0  0  0  0  0  0  0  0
    1.4631   -3.9400    0.0000 H   0  0  0  0  0  0  0  0  0  0  0  0
    4.2690   -3.9400    0.0000 H   0  0  0  0  0  0  0  0  0  0  0  0
    1.4631   -5.5600    0.0000 H   0  0  0  0  0  0  0  0  0  0  0  0
    4.2690   -5.5600    0.0000 H   0  0  0  0  0  0  0  0  0  0  0  0
    2.8660   -6.3700    0.0000 H   0  0  0  0  0  0  0  0  0  0  0  0
  1 11  2  0  0  0  0
  2  4  1  0  0  0  0
  2 11  1  0  0  0  0
  2 30  1  0  0  0  0
  3  4  1  0  0  0  0
  3  5  2  0  0  0  0
  3  6  1  0  0  0  0
  4 26  1  0  0  0  0
  4 27  1  0  0  0  0
  5  8  1  0  0  0  0
  5 28  1  0  0  0  0
  6  9  2  0  0  0  0
  6 29  1  0  0  0  0
  7  8  2  0  0  0  0
  7  9  1  0  0  0  0
  7 12  1  0  0  0  0
  8 31  1  0  0  0  0
  9 32  1  0  0  0  0
 10 11  1  0  0  0  0
 10 13  2  0  0  0  0
 10 14  1  0  0  0  0
 12 33  1  0  0  0  0
 12 34  1  0  0  0  0
 12 35  1  0  0  0  0
 13 16  1  0  0  0  0
 13 36  1  0  0  0  0
 14 17  2  0  0  0  0
 14 37  1  0  0  0  0
 15 16  2  0  0  0  0
 15 17  1  0  0  0  0
 15 18  1  0  0  0  0
 16 38  1  0  0  0  0
 17 39  1  0  0  0  0
 18 22  3  0  0  0  0
 19 20  2  0  0  0  0
 19 21  1  0  0  0  0
 19 22  1  0  0  0  0
 20 23  1  0  0  0  0
 20 40  1  0  0  0  0
 21 24  2  0  0  0  0
 21 41  1  0  0  0  0
 23 25  2  0  0  0  0
 23 42  1  0  0  0  0
 24 25  1  0  0  0  0
 24 43  1  0  0  0  0
 25 44  1  0  0  0  0
M  END
> <PUBCHEM_COMPOUND_CID>
17564861

> <PUBCHEM_COMPOUND_CANONICALIZED>
1

> <PUBCHEM_CACTVS_COMPLEXITY>
477

> <PUBCHEM_CACTVS_HBOND_ACCEPTOR>
1

> <PUBCHEM_CACTVS_HBOND_DONOR>
1

> <PUBCHEM_CACTVS_ROTATABLE_BOND>
5

> <PUBCHEM_CACTVS_SUBSKEYS>
AAADceB6IAAAAAAAAAAAAAAAAAAAAAAAAAAwYMAAAAAAAAABUAAAHgAQAAAADADBmAQyAILAAADIEiFSEAiCAAAkAAAIiIEIBMgIIDKAlRGEIQhghgCIiYcYiACOQAAAAAAAAACAAAAAAAAAAAAAAAAAAA==

> <PUBCHEM_IUPAC_OPENEYE_NAME>
4-(2-phenylethynyl)-N-(p-tolylmethyl)benzamide

> <PUBCHEM_IUPAC_CAS_NAME>
N-[(4-methylphenyl)methyl]-4-(2-phenylethynyl)benzamide

> <PUBCHEM_IUPAC_NAME>
N-[(4-methylphenyl)methyl]-4-(2-phenylethynyl)benzamide

> <PUBCHEM_IUPAC_SYSTEMATIC_NAME>
N-[(4-methylphenyl)methyl]-4-(2-phenylethynyl)benzamide

> <PUBCHEM_IUPAC_TRADITIONAL_NAME>
N-(4-methylbenzyl)-4-(2-phenylethynyl)benzamide

> <PUBCHEM_IUPAC_INCHI>
InChI=1S/C23H19NO/c1-18-7-9-21(10-8-18)17-24-23(25)22-15-13-20(14-16-22)12-11-19-5-3-2-4-6-19/h2-10,13-16H,17H2,1H3,(H,24,25)

> <PUBCHEM_IUPAC_INCHIKEY>
AJDXBBDAFISUFP-UHFFFAOYSA-N

> <PUBCHEM_XLOGP3>
4.6

> <PUBCHEM_EXACT_MASS>
325.146664

> <PUBCHEM_MOLECULAR_FORMULA>
C23H19NO

> <PUBCHEM_MOLECULAR_WEIGHT>
325.40306

> <PUBCHEM_OPENEYE_CAN_SMILES>
CC1=CC=C(C=C1)CNC(=O)C2=CC=C(C=C2)C#CC3=CC=CC=C3

> <PUBCHEM_OPENEYE_ISO_SMILES>
CC1=CC=C(C=C1)CNC(=O)C2=CC=C(C=C2)C#CC3=CC=CC=C3

> <PUBCHEM_CACTVS_TPSA>
29.1

> <PUBCHEM_MONOISOTOPIC_WEIGHT>
325.146664

> <PUBCHEM_TOTAL_CHARGE>
0

> <PUBCHEM_HEAVY_ATOM_COUNT>
25

> <PUBCHEM_ATOM_DEF_STEREO_COUNT>
0

> <PUBCHEM_ATOM_UDEF_STEREO_COUNT>
0

> <PUBCHEM_BOND_DEF_STEREO_COUNT>
0

> <PUBCHEM_BOND_UDEF_STEREO_COUNT>
0

> <PUBCHEM_ISOTOPIC_ATOM_COUNT>
0

> <PUBCHEM_COMPONENT_COUNT>
1

> <PUBCHEM_CACTVS_TAUTO_COUNT>
2

> <PUBCHEM_COORDINATE_TYPE>
1
5
255

> <PUBCHEM_BONDANNOTATIONS>
10  13  8
10  14  8
13  16  8
14  17  8
15  16  8
15  17  8
19  20  8
19  21  8
20  23  8
21  24  8
23  25  8
24  25  8
3  5  8
3  6  8
5  8  8
6  9  8
7  8  8
7  9  8

$$$$
