17746783
  -OEChem-06111304112D

 42 44  0     0  0  0  0  0  0999 V2000
    8.9282    2.7500    0.0000 O   0  0  0  0  0  0  0  0  0  0  0  0
    8.9282   -0.2500    0.0000 N   0  0  0  0  0  0  0  0  0  0  0  0
    8.0622    1.2500    0.0000 N   0  0  0  0  0  0  0  0  0  0  0  0
    6.3301    0.2500    0.0000 C   0  0  0  0  0  0  0  0  0  0  0  0
    2.8660   -1.7500    0.0000 C   0  0  0  0  0  0  0  0  0  0  0  0
    7.1962   -0.2500    0.0000 C   0  0  0  0  0  0  0  0  0  0  0  0
    5.4641   -0.2500    0.0000 C   0  0  0  0  0  0  0  0  0  0  0  0
    3.7320   -1.2500    0.0000 C   0  0  0  0  0  0  0  0  0  0  0  0
    8.0622    0.2500    0.0000 C   0  0  0  0  0  0  0  0  0  0  0  0
    4.5981    0.2500    0.0000 C   0  0  0  0  0  0  0  0  0  0  0  0
    5.4641   -1.2500    0.0000 C   0  0  0  0  0  0  0  0  0  0  0  0
    3.7320   -0.2500    0.0000 C   0  0  0  0  0  0  0  0  0  0  0  0
    4.5981   -1.7500    0.0000 C   0  0  0  0  0  0  0  0  0  0  0  0
    2.0000   -1.2500    0.0000 C   0  0  0  0  0  0  0  0  0  0  0  0
    2.8660   -2.7500    0.0000 C   0  0  0  0  0  0  0  0  0  0  0  0
    9.7942    0.2500    0.0000 C   0  0  0  0  0  0  0  0  0  0  0  0
    9.7942    1.2500    0.0000 C   0  0  0  0  0  0  0  0  0  0  0  0
    8.9282    1.7500    0.0000 C   0  0  0  0  0  0  0  0  0  0  0  0
   10.6882   -0.2847    0.0000 C   0  0  0  0  0  0  0  0  0  0  0  0
   10.6882    1.7847    0.0000 C   0  0  0  0  0  0  0  0  0  0  0  0
   11.5942    0.2292    0.0000 C   0  0  0  0  0  0  0  0  0  0  0  0
   11.5942    1.2708    0.0000 C   0  0  0  0  0  0  0  0  0  0  0  0
    6.7287    0.7249    0.0000 H   0  0  0  0  0  0  0  0  0  0  0  0
    5.9316    0.7249    0.0000 H   0  0  0  0  0  0  0  0  0  0  0  0
    2.8660   -1.1300    0.0000 H   0  0  0  0  0  0  0  0  0  0  0  0
    6.7976   -0.7249    0.0000 H   0  0  0  0  0  0  0  0  0  0  0  0
    7.5947   -0.7249    0.0000 H   0  0  0  0  0  0  0  0  0  0  0  0
    4.5981    0.8700    0.0000 H   0  0  0  0  0  0  0  0  0  0  0  0
    6.0010   -1.5600    0.0000 H   0  0  0  0  0  0  0  0  0  0  0  0
    3.1951    0.0600    0.0000 H   0  0  0  0  0  0  0  0  0  0  0  0
    4.5981   -2.3700    0.0000 H   0  0  0  0  0  0  0  0  0  0  0  0
    2.3100   -0.7131    0.0000 H   0  0  0  0  0  0  0  0  0  0  0  0
    2.2460   -2.7500    0.0000 H   0  0  0  0  0  0  0  0  0  0  0  0
    2.8660   -3.3700    0.0000 H   0  0  0  0  0  0  0  0  0  0  0  0
    3.4860   -2.7500    0.0000 H   0  0  0  0  0  0  0  0  0  0  0  0
    1.4631   -0.9400    0.0000 H   0  0  0  0  0  0  0  0  0  0  0  0
    1.6900   -1.7869    0.0000 H   0  0  0  0  0  0  0  0  0  0  0  0
    8.9282   -0.8700    0.0000 H   0  0  0  0  0  0  0  0  0  0  0  0
   10.6810   -0.9046    0.0000 H   0  0  0  0  0  0  0  0  0  0  0  0
   10.6810    2.4046    0.0000 H   0  0  0  0  0  0  0  0  0  0  0  0
   12.1300   -0.0829    0.0000 H   0  0  0  0  0  0  0  0  0  0  0  0
   12.1300    1.5829    0.0000 H   0  0  0  0  0  0  0  0  0  0  0  0
  1 18  2  0  0  0  0
  2  9  1  0  0  0  0
  2 16  1  0  0  0  0
  2 38  1  0  0  0  0
  3  9  2  0  0  0  0
  3 18  1  0  0  0  0
  4  6  1  0  0  0  0
  4  7  1  0  0  0  0
  4 23  1  0  0  0  0
  4 24  1  0  0  0  0
  5  8  1  0  0  0  0
  5 14  1  0  0  0  0
  5 15  1  0  0  0  0
  5 25  1  0  0  0  0
  6  9  1  0  0  0  0
  6 26  1  0  0  0  0
  6 27  1  0  0  0  0
  7 10  2  0  0  0  0
  7 11  1  0  0  0  0
  8 12  2  0  0  0  0
  8 13  1  0  0  0  0
 10 12  1  0  0  0  0
 10 28  1  0  0  0  0
 11 13  2  0  0  0  0
 11 29  1  0  0  0  0
 12 30  1  0  0  0  0
 13 31  1  0  0  0  0
 14 32  1  0  0  0  0
 14 36  1  0  0  0  0
 14 37  1  0  0  0  0
 15 33  1  0  0  0  0
 15 34  1  0  0  0  0
 15 35  1  0  0  0  0
 16 17  1  0  0  0  0
 16 19  2  0  0  0  0
 17 18  1  0  0  0  0
 17 20  2  0  0  0  0
 19 21  1  0  0  0  0
 19 39  1  0  0  0  0
 20 22  1  0  0  0  0
 20 40  1  0  0  0  0
 21 22  2  0  0  0  0
 21 41  1  0  0  0  0
 22 42  1  0  0  0  0
M  END
> <PUBCHEM_COMPOUND_CID>
17746783

> <PUBCHEM_COMPOUND_CANONICALIZED>
1

> <PUBCHEM_CACTVS_COMPLEXITY>
421

> <PUBCHEM_CACTVS_HBOND_ACCEPTOR>
1

> <PUBCHEM_CACTVS_HBOND_DONOR>
1

> <PUBCHEM_CACTVS_ROTATABLE_BOND>
4

> <PUBCHEM_CACTVS_SUBSKEYS>
AAADceB7IAAAAAAAAAAAAAAAAAAAAAAAAAAwYIAAAAAAAACBQAAAHgAQAAAADQiBmAAzwILAAACoAidydACCAAElAgAJiAEwZMgIIDrA3ZGEIYhgkADIyccYiMCOwAAAAAACAACAAAAAAAQAAAAAAAAAAA==

> <PUBCHEM_IUPAC_OPENEYE_NAME>
2-[2-(4-isopropylphenyl)ethyl]-1H-quinazolin-4-one

> <PUBCHEM_IUPAC_CAS_NAME>
2-[2-(4-propan-2-ylphenyl)ethyl]-1H-quinazolin-4-one

> <PUBCHEM_IUPAC_NAME>
2-[2-(4-propan-2-ylphenyl)ethyl]-1H-quinazolin-4-one

> <PUBCHEM_IUPAC_SYSTEMATIC_NAME>
2-[2-(4-propan-2-ylphenyl)ethyl]-1H-quinazolin-4-one

> <PUBCHEM_IUPAC_TRADITIONAL_NAME>
2-(2-p-cumenylethyl)-1H-quinazolin-4-one

> <PUBCHEM_IUPAC_INCHI>
InChI=1S/C19H20N2O/c1-13(2)15-10-7-14(8-11-15)9-12-18-20-17-6-4-3-5-16(17)19(22)21-18/h3-8,10-11,13H,9,12H2,1-2H3,(H,20,21,22)

> <PUBCHEM_IUPAC_INCHIKEY>
YTBOWXDNRNIORD-UHFFFAOYSA-N

> <PUBCHEM_XLOGP3>
4.2

> <PUBCHEM_EXACT_MASS>
292.157563

> <PUBCHEM_MOLECULAR_FORMULA>
C19H20N2O

> <PUBCHEM_MOLECULAR_WEIGHT>
292.3749

> <PUBCHEM_OPENEYE_CAN_SMILES>
CC(C)C1=CC=C(C=C1)CCC2=NC(=O)C3=CC=CC=C3N2

> <PUBCHEM_OPENEYE_ISO_SMILES>
CC(C)C1=CC=C(C=C1)CCC2=NC(=O)C3=CC=CC=C3N2

> <PUBCHEM_CACTVS_TPSA>
41.5

> <PUBCHEM_MONOISOTOPIC_WEIGHT>
292.157563

> <PUBCHEM_TOTAL_CHARGE>
0

> <PUBCHEM_HEAVY_ATOM_COUNT>
22

> <PUBCHEM_ATOM_DEF_STEREO_COUNT>
0

> <PUBCHEM_ATOM_UDEF_STEREO_COUNT>
0

> <PUBCHEM_BOND_DEF_STEREO_COUNT>
0

> <PUBCHEM_BOND_UDEF_STEREO_COUNT>
0

> <PUBCHEM_ISOTOPIC_ATOM_COUNT>
0

> <PUBCHEM_COMPONENT_COUNT>
1

> <PUBCHEM_CACTVS_TAUTO_COUNT>
12

> <PUBCHEM_COORDINATE_TYPE>
1
5
255

> <PUBCHEM_BONDANNOTATIONS>
10  12  8
11  13  8
16  17  8
16  19  8
17  18  8
17  20  8
19  21  8
2  16  8
2  9  8
20  22  8
21  22  8
3  18  8
3  9  8
7  10  8
7  11  8
8  12  8
8  13  8

$$$$
17748051
  -OEChem-06111304112D

 26 28  0     0  0  0  0  0  0999 V2000
    6.3758    2.1342    0.0000 O   0  0  0  0  0  0  0  0  0  0  0  0
    4.6783   -1.5449    0.0000 N   0  0  0  0  0  0  0  0  0  0  0  0
    4.6783    0.0646    0.0000 C   0  0  0  0  0  0  0  0  0  0  0  0
    3.7320   -0.2401    0.0000 C   0  0  0  0  0  0  0  0  0  0  0  0
    4.9889    1.0151    0.0000 C   0  0  0  0  0  0  0  0  0  0  0  0
    3.7320   -1.2401    0.0000 C   0  0  0  0  0  0  0  0  0  0  0  0
    5.2619   -0.7401    0.0000 C   0  0  0  0  0  0  0  0  0  0  0  0
    5.9674    1.2213    0.0000 C   0  0  0  0  0  0  0  0  0  0  0  0
    2.8660    0.2599    0.0000 C   0  0  0  0  0  0  0  0  0  0  0  0
    2.8660   -1.7401    0.0000 C   0  0  0  0  0  0  0  0  0  0  0  0
    2.0000   -0.2401    0.0000 C   0  0  0  0  0  0  0  0  0  0  0  0
    2.0000   -1.2401    0.0000 C   0  0  0  0  0  0  0  0  0  0  0  0
    6.7094    0.5509    0.0000 C   0  0  0  0  0  0  0  0  0  0  0  0
    7.5763    1.0494    0.0000 C   0  0  0  0  0  0  0  0  0  0  0  0
    7.3701    2.0279    0.0000 C   0  0  0  0  0  0  0  0  0  0  0  0
    4.9684    1.6348    0.0000 H   0  0  0  0  0  0  0  0  0  0  0  0
    4.3751    1.1025    0.0000 H   0  0  0  0  0  0  0  0  0  0  0  0
    5.8819   -0.7401    0.0000 H   0  0  0  0  0  0  0  0  0  0  0  0
    4.8709   -2.1342    0.0000 H   0  0  0  0  0  0  0  0  0  0  0  0
    2.8660    0.8799    0.0000 H   0  0  0  0  0  0  0  0  0  0  0  0
    2.8660   -2.3601    0.0000 H   0  0  0  0  0  0  0  0  0  0  0  0
    1.4631    0.0699    0.0000 H   0  0  0  0  0  0  0  0  0  0  0  0
    1.4631   -1.5501    0.0000 H   0  0  0  0  0  0  0  0  0  0  0  0
    6.6436   -0.0656    0.0000 H   0  0  0  0  0  0  0  0  0  0  0  0
    8.1423    0.7963    0.0000 H   0  0  0  0  0  0  0  0  0  0  0  0
    7.7858    2.4880    0.0000 H   0  0  0  0  0  0  0  0  0  0  0  0
  1  8  1  0  0  0  0
  1 15  1  0  0  0  0
  2  6  1  0  0  0  0
  2  7  1  0  0  0  0
  2 19  1  0  0  0  0
  3  4  1  0  0  0  0
  3  5  1  0  0  0  0
  3  7  2  0  0  0  0
  4  6  1  0  0  0  0
  4  9  2  0  0  0  0
  5  8  1  0  0  0  0
  5 16  1  0  0  0  0
  5 17  1  0  0  0  0
  6 10  2  0  0  0  0
  7 18  1  0  0  0  0
  8 13  2  0  0  0  0
  9 11  1  0  0  0  0
  9 20  1  0  0  0  0
 10 12  1  0  0  0  0
 10 21  1  0  0  0  0
 11 12  2  0  0  0  0
 11 22  1  0  0  0  0
 12 23  1  0  0  0  0
 13 14  1  0  0  0  0
 13 24  1  0  0  0  0
 14 15  2  0  0  0  0
 14 25  1  0  0  0  0
 15 26  1  0  0  0  0
M  END
> <PUBCHEM_COMPOUND_CID>
17748051

> <PUBCHEM_COMPOUND_CANONICALIZED>
1

> <PUBCHEM_CACTVS_COMPLEXITY>
219

> <PUBCHEM_CACTVS_HBOND_ACCEPTOR>
1

> <PUBCHEM_CACTVS_HBOND_DONOR>
1

> <PUBCHEM_CACTVS_ROTATABLE_BOND>
2

> <PUBCHEM_CACTVS_SUBSKEYS>
AAADccByIAAAAAAAAAAAAAAAAAAAAWJAAAAwAAAAAAAAAFgB/AAAHgAQAAAADAzhngY8xPLJlECoA7x3xACCiCA1IiAI2aE+bNgMJvLEtZuGOSjk0BHI6Ye82eOegAAAAAACAAAAAAAAAAQAAAAAAAAAAA==

> <PUBCHEM_IUPAC_OPENEYE_NAME>
3-(2-furylmethyl)-1H-indole

> <PUBCHEM_IUPAC_CAS_NAME>
3-(2-furanylmethyl)-1H-indole

> <PUBCHEM_IUPAC_NAME>
3-(furan-2-ylmethyl)-1H-indole

> <PUBCHEM_IUPAC_SYSTEMATIC_NAME>
3-(furan-2-ylmethyl)-1H-indole

> <PUBCHEM_IUPAC_TRADITIONAL_NAME>
3-(2-furfuryl)-1H-indole

> <PUBCHEM_IUPAC_INCHI>
InChI=1S/C13H11NO/c1-2-6-13-12(5-1)10(9-14-13)8-11-4-3-7-15-11/h1-7,9,14H,8H2

> <PUBCHEM_IUPAC_INCHIKEY>
KMLDZUPTIHVPCE-UHFFFAOYSA-N

> <PUBCHEM_XLOGP3>
3.3

> <PUBCHEM_EXACT_MASS>
197.084064

> <PUBCHEM_MOLECULAR_FORMULA>
C13H11NO

> <PUBCHEM_MOLECULAR_WEIGHT>
197.23254

> <PUBCHEM_OPENEYE_CAN_SMILES>
C1=CC=C2C(=C1)C(=CN2)CC3=CC=CO3

> <PUBCHEM_OPENEYE_ISO_SMILES>
C1=CC=C2C(=C1)C(=CN2)CC3=CC=CO3

> <PUBCHEM_CACTVS_TPSA>
28.9

> <PUBCHEM_MONOISOTOPIC_WEIGHT>
197.084064

> <PUBCHEM_TOTAL_CHARGE>
0

> <PUBCHEM_HEAVY_ATOM_COUNT>
15

> <PUBCHEM_ATOM_DEF_STEREO_COUNT>
0

> <PUBCHEM_ATOM_UDEF_STEREO_COUNT>
0

> <PUBCHEM_BOND_DEF_STEREO_COUNT>
0

> <PUBCHEM_BOND_UDEF_STEREO_COUNT>
0

> <PUBCHEM_ISOTOPIC_ATOM_COUNT>
0

> <PUBCHEM_COMPONENT_COUNT>
1

> <PUBCHEM_CACTVS_TAUTO_COUNT>
1

> <PUBCHEM_COORDINATE_TYPE>
1
5
255

> <PUBCHEM_BONDANNOTATIONS>
1  15  8
1  8  8
10  12  8
11  12  8
13  14  8
14  15  8
2  6  8
2  7  8
3  4  8
3  7  8
4  6  8
4  9  8
6  10  8
8  13  8
9  11  8

$$$$
17748052
  -OEChem-06111304112D

 29 31  0     0  0  0  0  0  0999 V2000
    8.9030    1.7180    0.0000 Cl  0  0  0  0  0  0  0  0  0  0  0  0
    4.6783   -1.6668    0.0000 N   0  0  0  0  0  0  0  0  0  0  0  0
    4.6783   -0.0573    0.0000 C   0  0  0  0  0  0  0  0  0  0  0  0
    3.7320   -0.3621    0.0000 C   0  0  0  0  0  0  0  0  0  0  0  0
    4.9889    0.8932    0.0000 C   0  0  0  0  0  0  0  0  0  0  0  0
    3.7320   -1.3621    0.0000 C   0  0  0  0  0  0  0  0  0  0  0  0
    5.2619   -0.8621    0.0000 C   0  0  0  0  0  0  0  0  0  0  0  0
    5.9674    1.0994    0.0000 C   0  0  0  0  0  0  0  0  0  0  0  0
    2.8660    0.1379    0.0000 C   0  0  0  0  0  0  0  0  0  0  0  0
    2.8660   -1.8621    0.0000 C   0  0  0  0  0  0  0  0  0  0  0  0
    6.6353    0.3551    0.0000 C   0  0  0  0  0  0  0  0  0  0  0  0
    6.2781    2.0499    0.0000 C   0  0  0  0  0  0  0  0  0  0  0  0
    2.0000   -0.3621    0.0000 C   0  0  0  0  0  0  0  0  0  0  0  0
    2.0000   -1.3621    0.0000 C   0  0  0  0  0  0  0  0  0  0  0  0
    7.6138    0.5613    0.0000 C   0  0  0  0  0  0  0  0  0  0  0  0
    7.2566    2.2561    0.0000 C   0  0  0  0  0  0  0  0  0  0  0  0
    7.9244    1.5118    0.0000 C   0  0  0  0  0  0  0  0  0  0  0  0
    4.9684    1.5128    0.0000 H   0  0  0  0  0  0  0  0  0  0  0  0
    4.3751    0.9805    0.0000 H   0  0  0  0  0  0  0  0  0  0  0  0
    5.8819   -0.8621    0.0000 H   0  0  0  0  0  0  0  0  0  0  0  0
    4.8709   -2.2561    0.0000 H   0  0  0  0  0  0  0  0  0  0  0  0
    2.8660    0.7579    0.0000 H   0  0  0  0  0  0  0  0  0  0  0  0
    2.8660   -2.4821    0.0000 H   0  0  0  0  0  0  0  0  0  0  0  0
    6.4427   -0.2342    0.0000 H   0  0  0  0  0  0  0  0  0  0  0  0
    5.8640    2.5114    0.0000 H   0  0  0  0  0  0  0  0  0  0  0  0
    1.4631   -0.0521    0.0000 H   0  0  0  0  0  0  0  0  0  0  0  0
    1.4631   -1.6721    0.0000 H   0  0  0  0  0  0  0  0  0  0  0  0
    8.0279    0.0998    0.0000 H   0  0  0  0  0  0  0  0  0  0  0  0
    7.4492    2.8455    0.0000 H   0  0  0  0  0  0  0  0  0  0  0  0
  1 17  1  0  0  0  0
  2  6  1  0  0  0  0
  2  7  1  0  0  0  0
  2 21  1  0  0  0  0
  3  4  1  0  0  0  0
  3  5  1  0  0  0  0
  3  7  2  0  0  0  0
  4  6  1  0  0  0  0
  4  9  2  0  0  0  0
  5  8  1  0  0  0  0
  5 18  1  0  0  0  0
  5 19  1  0  0  0  0
  6 10  2  0  0  0  0
  7 20  1  0  0  0  0
  8 11  2  0  0  0  0
  8 12  1  0  0  0  0
  9 13  1  0  0  0  0
  9 22  1  0  0  0  0
 10 14  1  0  0  0  0
 10 23  1  0  0  0  0
 11 15  1  0  0  0  0
 11 24  1  0  0  0  0
 12 16  2  0  0  0  0
 12 25  1  0  0  0  0
 13 14  2  0  0  0  0
 13 26  1  0  0  0  0
 14 27  1  0  0  0  0
 15 17  2  0  0  0  0
 15 28  1  0  0  0  0
 16 17  1  0  0  0  0
 16 29  1  0  0  0  0
M  END
> <PUBCHEM_COMPOUND_CID>
17748052

> <PUBCHEM_COMPOUND_CANONICALIZED>
1

> <PUBCHEM_CACTVS_COMPLEXITY>
247

> <PUBCHEM_CACTVS_HBOND_ACCEPTOR>
0

> <PUBCHEM_CACTVS_HBOND_DONOR>
1

> <PUBCHEM_CACTVS_ROTATABLE_BOND>
2

> <PUBCHEM_CACTVS_SUBSKEYS>
AAADccByAAAEAAAAAAAAAAAAAAAAAWAAAAAwYAAAAAAAAFgB9AAAHAIQAAAADArBHiQ8wPLJkACgAzRnRACCgCAxByAI2aA4ZpgIIOLBk5GEIAhgkADIyAcQgMAOhAAAAAACAAAIAAAAAAQAAAAAAAAAAA==

> <PUBCHEM_IUPAC_OPENEYE_NAME>
3-[(4-chlorophenyl)methyl]-1H-indole

> <PUBCHEM_IUPAC_CAS_NAME>
3-[(4-chlorophenyl)methyl]-1H-indole

> <PUBCHEM_IUPAC_NAME>
3-[(4-chlorophenyl)methyl]-1H-indole

> <PUBCHEM_IUPAC_SYSTEMATIC_NAME>
3-[(4-chlorophenyl)methyl]-1H-indole

> <PUBCHEM_IUPAC_TRADITIONAL_NAME>
3-(4-chlorobenzyl)-1H-indole

> <PUBCHEM_IUPAC_INCHI>
InChI=1S/C15H12ClN/c16-13-7-5-11(6-8-13)9-12-10-17-15-4-2-1-3-14(12)15/h1-8,10,17H,9H2

> <PUBCHEM_IUPAC_INCHIKEY>
SEGLTMJKKAMXEF-UHFFFAOYSA-N

> <PUBCHEM_XLOGP3>
4.8

> <PUBCHEM_EXACT_MASS>
241.065827

> <PUBCHEM_MOLECULAR_FORMULA>
C15H12ClN

> <PUBCHEM_MOLECULAR_WEIGHT>
241.71548

> <PUBCHEM_OPENEYE_CAN_SMILES>
C1=CC=C2C(=C1)C(=CN2)CC3=CC=C(C=C3)Cl

> <PUBCHEM_OPENEYE_ISO_SMILES>
C1=CC=C2C(=C1)C(=CN2)CC3=CC=C(C=C3)Cl

> <PUBCHEM_CACTVS_TPSA>
15.8

> <PUBCHEM_MONOISOTOPIC_WEIGHT>
241.065827

> <PUBCHEM_TOTAL_CHARGE>
0

> <PUBCHEM_HEAVY_ATOM_COUNT>
17

> <PUBCHEM_ATOM_DEF_STEREO_COUNT>
0

> <PUBCHEM_ATOM_UDEF_STEREO_COUNT>
0

> <PUBCHEM_BOND_DEF_STEREO_COUNT>
0

> <PUBCHEM_BOND_UDEF_STEREO_COUNT>
0

> <PUBCHEM_ISOTOPIC_ATOM_COUNT>
0

> <PUBCHEM_COMPONENT_COUNT>
1

> <PUBCHEM_CACTVS_TAUTO_COUNT>
1

> <PUBCHEM_COORDINATE_TYPE>
1
5
255

> <PUBCHEM_BONDANNOTATIONS>
10  14  8
11  15  8
12  16  8
13  14  8
15  17  8
16  17  8
2  6  8
2  7  8
3  4  8
3  7  8
4  6  8
4  9  8
6  10  8
8  11  8
8  12  8
9  13  8

$$$$
