29706353
  -OEChem-12041211392D

 45 46  0     0  0  0  0  0  0999 V2000
    4.5981   -5.5000    0.0000 F   0  0  0  0  0  0  0  0  0  0  0  0
    5.5981   -4.5000    0.0000 F   0  0  0  0  0  0  0  0  0  0  0  0
    3.5981   -4.5000    0.0000 F   0  0  0  0  0  0  0  0  0  0  0  0
    6.3301    1.5000    0.0000 O   0  0  0  0  0  0  0  0  0  0  0  0
    6.3301    4.5000    0.0000 O   0  0  0  0  0  0  0  0  0  0  0  0
    9.7942    2.5000    0.0000 O   0  0  0  0  0  0  0  0  0  0  0  0
    6.3301   -0.5000    0.0000 O   0  0  0  0  0  0  0  0  0  0  0  0
    5.4641    3.0000    0.0000 O   0  0  0  0  0  0  0  0  0  0  0  0
    2.0000   -2.0000    0.0000 O   0  5  0  0  0  0  0  0  0  0  0  0
    2.8660   -0.5000    0.0000 O   0  0  0  0  0  0  0  0  0  0  0  0
    4.5981   -0.5000    0.0000 N   0  0  0  0  0  0  0  0  0  0  0  0
    2.8660   -1.5000    0.0000 N   0  3  0  0  0  0  0  0  0  0  0  0
    4.5981   -1.5000    0.0000 C   0  0  0  0  0  0  0  0  0  0  0  0
    3.7321   -2.0000    0.0000 C   0  0  0  0  0  0  0  0  0  0  0  0
    4.5981   -3.5000    0.0000 C   0  0  0  0  0  0  0  0  0  0  0  0
    3.7321   -3.0000    0.0000 C   0  0  0  0  0  0  0  0  0  0  0  0
    5.4641   -2.0000    0.0000 C   0  0  0  0  0  0  0  0  0  0  0  0
    5.4641   -3.0000    0.0000 C   0  0  0  0  0  0  0  0  0  0  0  0
    7.1962    3.0000    0.0000 C   0  0  0  0  0  0  0  0  0  0  0  0
    4.5981   -4.5000    0.0000 C   0  0  0  0  0  0  0  0  0  0  0  0
    5.4641    0.0000    0.0000 C   0  0  0  0  0  0  0  0  0  0  0  0
    7.1962    4.0000    0.0000 C   0  0  0  0  0  0  0  0  0  0  0  0
    5.4641    1.0000    0.0000 C   0  0  0  0  0  0  0  0  0  0  0  0
    8.0622    2.5000    0.0000 C   0  0  0  0  0  0  0  0  0  0  0  0
    8.9282    3.0000    0.0000 C   0  0  0  0  0  0  0  0  0  0  0  0
    6.3301    2.5000    0.0000 C   0  0  0  0  0  0  0  0  0  0  0  0
    8.0622    4.5000    0.0000 C   0  0  0  0  0  0  0  0  0  0  0  0
    8.9282    4.0000    0.0000 C   0  0  0  0  0  0  0  0  0  0  0  0
    6.3301    5.5000    0.0000 C   0  0  0  0  0  0  0  0  0  0  0  0
   10.6603    3.0000    0.0000 C   0  0  0  0  0  0  0  0  0  0  0  0
    3.1951   -3.3100    0.0000 H   0  0  0  0  0  0  0  0  0  0  0  0
    6.0010   -1.6900    0.0000 H   0  0  0  0  0  0  0  0  0  0  0  0
    6.0010   -3.3100    0.0000 H   0  0  0  0  0  0  0  0  0  0  0  0
    4.0611   -0.1900    0.0000 H   0  0  0  0  0  0  0  0  0  0  0  0
    5.2521    1.5826    0.0000 H   0  0  0  0  0  0  0  0  0  0  0  0
    4.8535    0.8923    0.0000 H   0  0  0  0  0  0  0  0  0  0  0  0
    8.0622    1.8800    0.0000 H   0  0  0  0  0  0  0  0  0  0  0  0
    8.0622    5.1200    0.0000 H   0  0  0  0  0  0  0  0  0  0  0  0
    9.4651    4.3100    0.0000 H   0  0  0  0  0  0  0  0  0  0  0  0
    6.9501    5.5000    0.0000 H   0  0  0  0  0  0  0  0  0  0  0  0
    6.3301    6.1200    0.0000 H   0  0  0  0  0  0  0  0  0  0  0  0
    5.7101    5.5000    0.0000 H   0  0  0  0  0  0  0  0  0  0  0  0
   10.9703    2.4631    0.0000 H   0  0  0  0  0  0  0  0  0  0  0  0
   11.1972    3.3100    0.0000 H   0  0  0  0  0  0  0  0  0  0  0  0
   10.3503    3.5369    0.0000 H   0  0  0  0  0  0  0  0  0  0  0  0
  1 20  1  0  0  0  0
  2 20  1  0  0  0  0
  3 20  1  0  0  0  0
  4 23  1  0  0  0  0
  4 26  1  0  0  0  0
  5 22  1  0  0  0  0
  5 29  1  0  0  0  0
  6 25  1  0  0  0  0
  6 30  1  0  0  0  0
  7 21  2  0  0  0  0
  8 26  2  0  0  0  0
  9 12  1  0  0  0  0
 10 12  2  0  0  0  0
 11 13  1  0  0  0  0
 11 21  1  0  0  0  0
 11 34  1  0  0  0  0
 12 14  1  0  0  0  0
 13 14  2  0  0  0  0
 13 17  1  0  0  0  0
 14 16  1  0  0  0  0
 15 16  2  0  0  0  0
 15 18  1  0  0  0  0
 15 20  1  0  0  0  0
 16 31  1  0  0  0  0
 17 18  2  0  0  0  0
 17 32  1  0  0  0  0
 18 33  1  0  0  0  0
 19 22  2  0  0  0  0
 19 24  1  0  0  0  0
 19 26  1  0  0  0  0
 21 23  1  0  0  0  0
 22 27  1  0  0  0  0
 23 35  1  0  0  0  0
 23 36  1  0  0  0  0
 24 25  2  0  0  0  0
 24 37  1  0  0  0  0
 25 28  1  0  0  0  0
 27 28  2  0  0  0  0
 27 38  1  0  0  0  0
 28 39  1  0  0  0  0
 29 40  1  0  0  0  0
 29 41  1  0  0  0  0
 29 42  1  0  0  0  0
 30 43  1  0  0  0  0
 30 44  1  0  0  0  0
 30 45  1  0  0  0  0
M  CHG  2   9  -1  12   1
M  END
> <PUBCHEM_COMPOUND_CID>
29706353

> <PUBCHEM_COMPOUND_CANONICALIZED>
1

> <PUBCHEM_CACTVS_COMPLEXITY>
626

> <PUBCHEM_CACTVS_HBOND_ACCEPTOR>
10

> <PUBCHEM_CACTVS_HBOND_DONOR>
1

> <PUBCHEM_CACTVS_ROTATABLE_BOND>
7

> <PUBCHEM_CACTVS_SUBSKEYS>
AAADccB7OYAAAAAAAAAAAAAAAAAAAAAAAAAwYAAAAAAAAAABQAAAHwAUAAAADAyhmBIyzoLQRACJAiXSWwKCCAAlIgAoiAFGfMoOZzbEtZ+XMWhl9JHY6YfayDCOCQABQAAIACASAAKAABAAQAAAAAAAAA==

> <PUBCHEM_IUPAC_OPENEYE_NAME>
[2-[2-nitro-4-(trifluoromethyl)anilino]-2-oxo-ethyl] 2,5-dimethoxybenzoate

> <PUBCHEM_IUPAC_CAS_NAME>
2,5-dimethoxybenzoic acid [2-[2-nitro-4-(trifluoromethyl)anilino]-2-oxoethyl] ester

> <PUBCHEM_IUPAC_NAME>
[2-[2-nitro-4-(trifluoromethyl)anilino]-2-oxoethyl] 2,5-dimethoxybenzoate

> <PUBCHEM_IUPAC_SYSTEMATIC_NAME>
[2-[[2-nitro-4-(trifluoromethyl)phenyl]amino]-2-oxidanylidene-ethyl] 2,5-dimethoxybenzoate

> <PUBCHEM_IUPAC_TRADITIONAL_NAME>
2,5-dimethoxybenzoic acid [2-keto-2-[2-nitro-4-(trifluoromethyl)anilino]ethyl] ester

> <PUBCHEM_IUPAC_INCHI>
InChI=1S/C18H15F3N2O7/c1-28-11-4-6-15(29-2)12(8-11)17(25)30-9-16(24)22-13-5-3-10(18(19,20)21)7-14(13)23(26)27/h3-8H,9H2,1-2H3,(H,22,24)

> <PUBCHEM_IUPAC_INCHIKEY>
JMFQYURYZQUWBG-UHFFFAOYSA-N

> <PUBCHEM_XLOGP3>
2.6

> <PUBCHEM_EXACT_MASS>
428.083135

> <PUBCHEM_MOLECULAR_FORMULA>
C18H15F3N2O7

> <PUBCHEM_MOLECULAR_WEIGHT>
428.31611

> <PUBCHEM_OPENEYE_CAN_SMILES>
COC1=CC(=C(C=C1)OC)C(=O)OCC(=O)NC2=C(C=C(C=C2)C(F)(F)F)[N+](=O)[O-]

> <PUBCHEM_OPENEYE_ISO_SMILES>
COC1=CC(=C(C=C1)OC)C(=O)OCC(=O)NC2=C(C=C(C=C2)C(F)(F)F)[N+](=O)[O-]

> <PUBCHEM_CACTVS_TPSA>
120

> <PUBCHEM_MONOISOTOPIC_WEIGHT>
428.083135

> <PUBCHEM_TOTAL_CHARGE>
0

> <PUBCHEM_HEAVY_ATOM_COUNT>
30

> <PUBCHEM_ATOM_DEF_STEREO_COUNT>
0

> <PUBCHEM_ATOM_UDEF_STEREO_COUNT>
0

> <PUBCHEM_BOND_DEF_STEREO_COUNT>
0

> <PUBCHEM_BOND_UDEF_STEREO_COUNT>
0

> <PUBCHEM_ISOTOPIC_ATOM_COUNT>
0

> <PUBCHEM_COMPONENT_COUNT>
1

> <PUBCHEM_CACTVS_TAUTO_COUNT>
2

> <PUBCHEM_COORDINATE_TYPE>
1
5
255

> <PUBCHEM_BONDANNOTATIONS>
13  14  8
13  17  8
14  16  8
15  16  8
15  18  8
17  18  8
19  22  8
19  24  8
22  27  8
24  25  8
25  28  8
27  28  8

$$$$
