1428871
  -OEChem-11301216022D

 36 38  0     0  0  0  0  0  0999 V2000
    7.0468    2.1012    0.0000 O   0  0  0  0  0  0  0  0  0  0  0  0
    7.0468   -0.8988    0.0000 N   0  0  0  0  0  0  0  0  0  0  0  0
    6.1808    0.6012    0.0000 N   0  0  0  0  0  0  0  0  0  0  0  0
    3.5827   -0.8988    0.0000 C   0  0  0  0  0  0  0  0  0  0  0  0
    2.6691   -0.4920    0.0000 C   0  0  0  0  0  0  0  0  0  0  0  0
    3.4782   -1.8933    0.0000 C   0  0  0  0  0  0  0  0  0  0  0  0
    2.0000   -1.2352    0.0000 C   0  0  0  0  0  0  0  0  0  0  0  0
    2.5000   -2.1012    0.0000 C   0  0  0  0  0  0  0  0  0  0  0  0
    4.4487   -0.3988    0.0000 C   0  0  0  0  0  0  0  0  0  0  0  0
    5.3147   -0.8988    0.0000 C   0  0  0  0  0  0  0  0  0  0  0  0
    6.1808   -0.3988    0.0000 C   0  0  0  0  0  0  0  0  0  0  0  0
    7.9128   -0.3988    0.0000 C   0  0  0  0  0  0  0  0  0  0  0  0
    7.9128    0.6012    0.0000 C   0  0  0  0  0  0  0  0  0  0  0  0
    7.0468    1.1012    0.0000 C   0  0  0  0  0  0  0  0  0  0  0  0
    8.8067   -0.9334    0.0000 C   0  0  0  0  0  0  0  0  0  0  0  0
    8.8067    1.1359    0.0000 C   0  0  0  0  0  0  0  0  0  0  0  0
    9.7128   -0.4196    0.0000 C   0  0  0  0  0  0  0  0  0  0  0  0
    9.7128    0.6220    0.0000 C   0  0  0  0  0  0  0  0  0  0  0  0
    4.1026   -1.2365    0.0000 H   0  0  0  0  0  0  0  0  0  0  0  0
    2.9791    0.0449    0.0000 H   0  0  0  0  0  0  0  0  0  0  0  0
    2.1675   -0.1276    0.0000 H   0  0  0  0  0  0  0  0  0  0  0  0
    3.5430   -2.5099    0.0000 H   0  0  0  0  0  0  0  0  0  0  0  0
    4.0982   -1.8933    0.0000 H   0  0  0  0  0  0  0  0  0  0  0  0
    1.5851   -0.7744    0.0000 H   0  0  0  0  0  0  0  0  0  0  0  0
    1.4984   -1.5996    0.0000 H   0  0  0  0  0  0  0  0  0  0  0  0
    1.9336   -2.3534    0.0000 H   0  0  0  0  0  0  0  0  0  0  0  0
    2.6916   -2.6909    0.0000 H   0  0  0  0  0  0  0  0  0  0  0  0
    4.8472    0.0762    0.0000 H   0  0  0  0  0  0  0  0  0  0  0  0
    4.0502    0.0762    0.0000 H   0  0  0  0  0  0  0  0  0  0  0  0
    4.9162   -1.3737    0.0000 H   0  0  0  0  0  0  0  0  0  0  0  0
    5.7133   -1.3737    0.0000 H   0  0  0  0  0  0  0  0  0  0  0  0
    7.0468   -1.5188    0.0000 H   0  0  0  0  0  0  0  0  0  0  0  0
    8.7996   -1.5534    0.0000 H   0  0  0  0  0  0  0  0  0  0  0  0
    8.7996    1.7558    0.0000 H   0  0  0  0  0  0  0  0  0  0  0  0
   10.2485   -0.7317    0.0000 H   0  0  0  0  0  0  0  0  0  0  0  0
   10.2485    0.9341    0.0000 H   0  0  0  0  0  0  0  0  0  0  0  0
  1 14  2  0  0  0  0
  2 11  1  0  0  0  0
  2 12  1  0  0  0  0
  2 32  1  0  0  0  0
  3 11  2  0  0  0  0
  3 14  1  0  0  0  0
  4  5  1  0  0  0  0
  4  6  1  0  0  0  0
  4  9  1  0  0  0  0
  4 19  1  0  0  0  0
  5  7  1  0  0  0  0
  5 20  1  0  0  0  0
  5 21  1  0  0  0  0
  6  8  1  0  0  0  0
  6 22  1  0  0  0  0
  6 23  1  0  0  0  0
  7  8  1  0  0  0  0
  7 24  1  0  0  0  0
  7 25  1  0  0  0  0
  8 26  1  0  0  0  0
  8 27  1  0  0  0  0
  9 10  1  0  0  0  0
  9 28  1  0  0  0  0
  9 29  1  0  0  0  0
 10 11  1  0  0  0  0
 10 30  1  0  0  0  0
 10 31  1  0  0  0  0
 12 13  1  0  0  0  0
 12 15  2  0  0  0  0
 13 14  1  0  0  0  0
 13 16  2  0  0  0  0
 15 17  1  0  0  0  0
 15 33  1  0  0  0  0
 16 18  1  0  0  0  0
 16 34  1  0  0  0  0
 17 18  2  0  0  0  0
 17 35  1  0  0  0  0
 18 36  1  0  0  0  0
M  END
> <PUBCHEM_COMPOUND_CID>
1428871

> <PUBCHEM_COMPOUND_CANONICALIZED>
1

> <PUBCHEM_CACTVS_COMPLEXITY>
344

> <PUBCHEM_CACTVS_HBOND_ACCEPTOR>
1

> <PUBCHEM_CACTVS_HBOND_DONOR>
1

> <PUBCHEM_CACTVS_ROTATABLE_BOND>
3

> <PUBCHEM_CACTVS_SUBSKEYS>
AAADceBzIAAAAAAAAAAAAAAAAAAAAYAAAAAwQAAAAAAAAACBAAAAHgAQAAAADQiBmAAxwILAAACoAidydACCAAElAgAJiAEwZMgIIDrA3ZGEIYhgkADIyccYiICOAAAAAAACAAAAAAAAAAQAAAAAAAAAAA==

> <PUBCHEM_IUPAC_OPENEYE_NAME>
2-(2-cyclopentylethyl)-1H-quinazolin-4-one

> <PUBCHEM_IUPAC_CAS_NAME>
2-(2-cyclopentylethyl)-1H-quinazolin-4-one

> <PUBCHEM_IUPAC_NAME>
2-(2-cyclopentylethyl)-1H-quinazolin-4-one

> <PUBCHEM_IUPAC_SYSTEMATIC_NAME>
2-(2-cyclopentylethyl)-1H-quinazolin-4-one

> <PUBCHEM_IUPAC_TRADITIONAL_NAME>
2-(2-cyclopentylethyl)-1H-quinazolin-4-one

> <PUBCHEM_IUPAC_INCHI>
InChI=1S/C15H18N2O/c18-15-12-7-3-4-8-13(12)16-14(17-15)10-9-11-5-1-2-6-11/h3-4,7-8,11H,1-2,5-6,9-10H2,(H,16,17,18)

> <PUBCHEM_IUPAC_INCHIKEY>
WOTLWHPWNALAJI-UHFFFAOYSA-N

> <PUBCHEM_XLOGP3>
3.7

> <PUBCHEM_EXACT_MASS>
242.141913

> <PUBCHEM_MOLECULAR_FORMULA>
C15H18N2O

> <PUBCHEM_MOLECULAR_WEIGHT>
242.31622

> <PUBCHEM_OPENEYE_CAN_SMILES>
C1CCC(C1)CCC2=NC(=O)C3=CC=CC=C3N2

> <PUBCHEM_OPENEYE_ISO_SMILES>
C1CCC(C1)CCC2=NC(=O)C3=CC=CC=C3N2

> <PUBCHEM_CACTVS_TPSA>
41.5

> <PUBCHEM_MONOISOTOPIC_WEIGHT>
242.141913

> <PUBCHEM_TOTAL_CHARGE>
0

> <PUBCHEM_HEAVY_ATOM_COUNT>
18

> <PUBCHEM_ATOM_DEF_STEREO_COUNT>
0

> <PUBCHEM_ATOM_UDEF_STEREO_COUNT>
0

> <PUBCHEM_BOND_DEF_STEREO_COUNT>
0

> <PUBCHEM_BOND_UDEF_STEREO_COUNT>
0

> <PUBCHEM_ISOTOPIC_ATOM_COUNT>
0

> <PUBCHEM_COMPONENT_COUNT>
1

> <PUBCHEM_CACTVS_TAUTO_COUNT>
12

> <PUBCHEM_COORDINATE_TYPE>
1
5
255

> <PUBCHEM_BONDANNOTATIONS>
12  13  8
12  15  8
13  14  8
13  16  8
15  17  8
16  18  8
17  18  8
2  11  8
2  12  8
3  11  8
3  14  8

$$$$
1428875
  -OEChem-11301216022D

 41 45  0     0  0  0  0  0  0999 V2000
    5.4058    2.6117    0.0000 O   0  0  0  0  0  0  0  0  0  0  0  0
    6.1822   -0.2860    0.0000 N   0  0  0  0  0  0  0  0  0  0  0  0
    4.9575    0.9387    0.0000 N   0  0  0  0  0  0  0  0  0  0  0  0
    3.6730   -0.2515    0.0000 C   0  0  0  0  0  0  0  0  0  0  0  0
    4.5092   -1.6998    0.0000 C   0  0  0  0  0  0  0  0  0  0  0  0
    2.8368   -1.6998    0.0000 C   0  0  0  0  0  0  0  0  0  0  0  0
    2.9819   -2.1350    0.0000 C   0  0  0  0  0  0  0  0  0  0  0  0
    4.5092   -0.7343    0.0000 C   0  0  0  0  0  0  0  0  0  0  0  0
    2.8368   -0.7343    0.0000 C   0  0  0  0  0  0  0  0  0  0  0  0
    3.6730   -2.0026    0.0000 C   0  0  0  0  0  0  0  0  0  0  0  0
    2.9819   -1.0896    0.0000 C   0  0  0  0  0  0  0  0  0  0  0  0
    3.8876   -2.6117    0.0000 C   0  0  0  0  0  0  0  0  0  0  0  0
    2.0000   -2.1826    0.0000 C   0  0  0  0  0  0  0  0  0  0  0  0
    5.2163   -0.0272    0.0000 C   0  0  0  0  0  0  0  0  0  0  0  0
    6.8893    0.4211    0.0000 C   0  0  0  0  0  0  0  0  0  0  0  0
    5.6646    1.6458    0.0000 C   0  0  0  0  0  0  0  0  0  0  0  0
    6.6305    1.3870    0.0000 C   0  0  0  0  0  0  0  0  0  0  0  0
    7.8912    0.1360    0.0000 C   0  0  0  0  0  0  0  0  0  0  0  0
    7.3556    2.1348    0.0000 C   0  0  0  0  0  0  0  0  0  0  0  0
    8.6334    0.8669    0.0000 C   0  0  0  0  0  0  0  0  0  0  0  0
    8.3638    1.8730    0.0000 C   0  0  0  0  0  0  0  0  0  0  0  0
    5.1016   -1.8826    0.0000 H   0  0  0  0  0  0  0  0  0  0  0  0
    3.6730    0.3685    0.0000 H   0  0  0  0  0  0  0  0  0  0  0  0
    3.5127   -1.8145    0.0000 H   0  0  0  0  0  0  0  0  0  0  0  0
    2.2999   -1.3898    0.0000 H   0  0  0  0  0  0  0  0  0  0  0  0
    5.0820   -0.9716    0.0000 H   0  0  0  0  0  0  0  0  0  0  0  0
    2.6247   -0.1517    0.0000 H   0  0  0  0  0  0  0  0  0  0  0  0
    2.2262   -0.8420    0.0000 H   0  0  0  0  0  0  0  0  0  0  0  0
    3.3030   -2.5002    0.0000 H   0  0  0  0  0  0  0  0  0  0  0  0
    4.0430   -2.5001    0.0000 H   0  0  0  0  0  0  0  0  0  0  0  0
    2.6383   -0.5736    0.0000 H   0  0  0  0  0  0  0  0  0  0  0  0
    2.3885   -1.2692    0.0000 H   0  0  0  0  0  0  0  0  0  0  0  0
    3.5782   -3.1490    0.0000 H   0  0  0  0  0  0  0  0  0  0  0  0
    4.4127   -2.9413    0.0000 H   0  0  0  0  0  0  0  0  0  0  0  0
    1.5188   -1.7917    0.0000 H   0  0  0  0  0  0  0  0  0  0  0  0
    1.8068   -2.7718    0.0000 H   0  0  0  0  0  0  0  0  0  0  0  0
    6.3427   -0.8849    0.0000 H   0  0  0  0  0  0  0  0  0  0  0  0
    8.0447   -0.4647    0.0000 H   0  0  0  0  0  0  0  0  0  0  0  0
    7.1882    2.7318    0.0000 H   0  0  0  0  0  0  0  0  0  0  0  0
    9.2316    0.7041    0.0000 H   0  0  0  0  0  0  0  0  0  0  0  0
    8.8005    2.3131    0.0000 H   0  0  0  0  0  0  0  0  0  0  0  0
  1 16  2  0  0  0  0
  2 14  1  0  0  0  0
  2 15  1  0  0  0  0
  2 37  1  0  0  0  0
  3 14  2  0  0  0  0
  3 16  1  0  0  0  0
  4  8  1  0  0  0  0
  4  9  1  0  0  0  0
  4 11  1  0  0  0  0
  4 23  1  0  0  0  0
  5  8  1  0  0  0  0
  5 10  1  0  0  0  0
  5 12  1  0  0  0  0
  5 22  1  0  0  0  0
  6  9  1  0  0  0  0
  6 10  1  0  0  0  0
  6 13  1  0  0  0  0
  6 25  1  0  0  0  0
  7 11  1  0  0  0  0
  7 12  1  0  0  0  0
  7 13  1  0  0  0  0
  7 24  1  0  0  0  0
  8 14  1  0  0  0  0
  8 26  1  0  0  0  0
  9 27  1  0  0  0  0
  9 28  1  0  0  0  0
 10 29  1  0  0  0  0
 10 30  1  0  0  0  0
 11 31  1  0  0  0  0
 11 32  1  0  0  0  0
 12 33  1  0  0  0  0
 12 34  1  0  0  0  0
 13 35  1  0  0  0  0
 13 36  1  0  0  0  0
 15 17  1  0  0  0  0
 15 18  2  0  0  0  0
 16 17  1  0  0  0  0
 17 19  2  0  0  0  0
 18 20  1  0  0  0  0
 18 38  1  0  0  0  0
 19 21  1  0  0  0  0
 19 39  1  0  0  0  0
 20 21  2  0  0  0  0
 20 40  1  0  0  0  0
 21 41  1  0  0  0  0
M  END
> <PUBCHEM_COMPOUND_CID>
1428875

> <PUBCHEM_COMPOUND_CANONICALIZED>
1

> <PUBCHEM_CACTVS_COMPLEXITY>
469

> <PUBCHEM_CACTVS_HBOND_ACCEPTOR>
1

> <PUBCHEM_CACTVS_HBOND_DONOR>
1

> <PUBCHEM_CACTVS_ROTATABLE_BOND>
1

> <PUBCHEM_CACTVS_SUBSKEYS>
AAADceB7IAAAAAAAAAAAAAAAAAAAAAAAAAAwYMGDAAAAAACBAAAAHgAQAAAADQiBmAAxwILAAACoAidydACCAAElAgAJiAEwZMgIIDrA3ZGEIYhgkADIyccYiMCOgAAAAAACAACAAAQAACQAAAAAAAAAAA==

> <PUBCHEM_IUPAC_OPENEYE_NAME>
2-(2-adamantyl)-1H-quinazolin-4-one

> <PUBCHEM_IUPAC_CAS_NAME>
2-(2-adamantyl)-1H-quinazolin-4-one

> <PUBCHEM_IUPAC_NAME>
2-(2-adamantyl)-1H-quinazolin-4-one

> <PUBCHEM_IUPAC_SYSTEMATIC_NAME>
2-(2-adamantyl)-1H-quinazolin-4-one

> <PUBCHEM_IUPAC_TRADITIONAL_NAME>
2-(2-adamantyl)-1H-quinazolin-4-one

> <PUBCHEM_IUPAC_INCHI>
InChI=1S/C18H20N2O/c21-18-14-3-1-2-4-15(14)19-17(20-18)16-12-6-10-5-11(8-12)9-13(16)7-10/h1-4,10-13,16H,5-9H2,(H,19,20,21)

> <PUBCHEM_IUPAC_INCHIKEY>
YLXLEHXWZPOYIL-UHFFFAOYSA-N

> <PUBCHEM_XLOGP3>
4.2

> <PUBCHEM_EXACT_MASS>
280.157563

> <PUBCHEM_MOLECULAR_FORMULA>
C18H20N2O

> <PUBCHEM_MOLECULAR_WEIGHT>
280.3642

> <PUBCHEM_OPENEYE_CAN_SMILES>
C1C2CC3CC1CC(C2)C3C4=NC(=O)C5=CC=CC=C5N4

> <PUBCHEM_OPENEYE_ISO_SMILES>
C1C2CC3CC1CC(C2)C3C4=NC(=O)C5=CC=CC=C5N4

> <PUBCHEM_CACTVS_TPSA>
41.5

> <PUBCHEM_MONOISOTOPIC_WEIGHT>
280.157563

> <PUBCHEM_TOTAL_CHARGE>
0

> <PUBCHEM_HEAVY_ATOM_COUNT>
21

> <PUBCHEM_ATOM_DEF_STEREO_COUNT>
0

> <PUBCHEM_ATOM_UDEF_STEREO_COUNT>
0

> <PUBCHEM_BOND_DEF_STEREO_COUNT>
0

> <PUBCHEM_BOND_UDEF_STEREO_COUNT>
0

> <PUBCHEM_ISOTOPIC_ATOM_COUNT>
0

> <PUBCHEM_COMPONENT_COUNT>
1

> <PUBCHEM_CACTVS_TAUTO_COUNT>
10

> <PUBCHEM_COORDINATE_TYPE>
1
5
255

> <PUBCHEM_BONDANNOTATIONS>
15  17  8
15  18  8
16  17  8
17  19  8
18  20  8
19  21  8
2  14  8
2  15  8
20  21  8
3  14  8
3  16  8

$$$$
1445344
  -OEChem-11301216032D

 23 24  0     0  0  0  0  0  0999 V2000
    4.5981    1.8100    0.0000 S   0  0  0  0  0  0  0  0  0  0  0  0
    4.5981   -1.1900    0.0000 N   0  0  0  0  0  0  0  0  0  0  0  0
    3.7320    0.3100    0.0000 N   0  0  0  0  0  0  0  0  0  0  0  0
    5.4641   -0.6900    0.0000 C   0  0  0  0  0  0  0  0  0  0  0  0
    3.7320   -0.6900    0.0000 C   0  0  0  0  0  0  0  0  0  0  0  0
    5.4641    0.3100    0.0000 C   0  0  0  0  0  0  0  0  0  0  0  0
    2.8660   -1.1900    0.0000 C   0  0  0  0  0  0  0  0  0  0  0  0
    4.5981    0.8100    0.0000 C   0  0  0  0  0  0  0  0  0  0  0  0
    6.3580   -1.2247    0.0000 C   0  0  0  0  0  0  0  0  0  0  0  0
    6.3580    0.8447    0.0000 C   0  0  0  0  0  0  0  0  0  0  0  0
    2.0000   -0.6900    0.0000 C   0  0  0  0  0  0  0  0  0  0  0  0
    7.2641   -0.7108    0.0000 C   0  0  0  0  0  0  0  0  0  0  0  0
    7.2641    0.3308    0.0000 C   0  0  0  0  0  0  0  0  0  0  0  0
    2.4675   -1.6650    0.0000 H   0  0  0  0  0  0  0  0  0  0  0  0
    3.2646   -1.6650    0.0000 H   0  0  0  0  0  0  0  0  0  0  0  0
    4.5981   -1.8100    0.0000 H   0  0  0  0  0  0  0  0  0  0  0  0
    6.3509   -1.8446    0.0000 H   0  0  0  0  0  0  0  0  0  0  0  0
    6.3509    1.4646    0.0000 H   0  0  0  0  0  0  0  0  0  0  0  0
    2.3100   -0.1531    0.0000 H   0  0  0  0  0  0  0  0  0  0  0  0
    1.4631   -0.3800    0.0000 H   0  0  0  0  0  0  0  0  0  0  0  0
    1.6900   -1.2269    0.0000 H   0  0  0  0  0  0  0  0  0  0  0  0
    7.7998   -1.0229    0.0000 H   0  0  0  0  0  0  0  0  0  0  0  0
    7.7998    0.6429    0.0000 H   0  0  0  0  0  0  0  0  0  0  0  0
  1  8  2  0  0  0  0
  2  4  1  0  0  0  0
  2  5  1  0  0  0  0
  2 16  1  0  0  0  0
  3  5  2  0  0  0  0
  3  8  1  0  0  0  0
  4  6  1  0  0  0  0
  4  9  2  0  0  0  0
  5  7  1  0  0  0  0
  6  8  1  0  0  0  0
  6 10  2  0  0  0  0
  7 11  1  0  0  0  0
  7 14  1  0  0  0  0
  7 15  1  0  0  0  0
  9 12  1  0  0  0  0
  9 17  1  0  0  0  0
 10 13  1  0  0  0  0
 10 18  1  0  0  0  0
 11 19  1  0  0  0  0
 11 20  1  0  0  0  0
 11 21  1  0  0  0  0
 12 13  2  0  0  0  0
 12 22  1  0  0  0  0
 13 23  1  0  0  0  0
M  END
> <PUBCHEM_COMPOUND_CID>
1445344

> <PUBCHEM_COMPOUND_CANONICALIZED>
1

> <PUBCHEM_CACTVS_COMPLEXITY>
247

> <PUBCHEM_CACTVS_HBOND_ACCEPTOR>
1

> <PUBCHEM_CACTVS_HBOND_DONOR>
1

> <PUBCHEM_CACTVS_ROTATABLE_BOND>
1

> <PUBCHEM_CACTVS_SUBSKEYS>
AAADccBzAABAAAAAAAAAAAAAAAAAAAAAAAAwQAAAAAAAAACBAAAAHAQQAAAADAiBWAAzwILAAACkAiZiZACCAAEhAgAJiAAwZIgIICLA2ZGEIAhgkADIyAcQgAAOAAAAAAACAAAAAAAAAAQAAAAAAAAAAA==

> <PUBCHEM_IUPAC_OPENEYE_NAME>
2-ethyl-1H-quinazoline-4-thione

> <PUBCHEM_IUPAC_CAS_NAME>
2-ethyl-1H-quinazoline-4-thione

> <PUBCHEM_IUPAC_NAME>
2-ethyl-1H-quinazoline-4-thione

> <PUBCHEM_IUPAC_SYSTEMATIC_NAME>
2-ethyl-1H-quinazoline-4-thione

> <PUBCHEM_IUPAC_TRADITIONAL_NAME>
2-ethyl-1H-quinazoline-4-thione

> <PUBCHEM_IUPAC_INCHI>
InChI=1S/C10H10N2S/c1-2-9-11-8-6-4-3-5-7(8)10(13)12-9/h3-6H,2H2,1H3,(H,11,12,13)

> <PUBCHEM_IUPAC_INCHIKEY>
JHGVAZCNMCJXSO-UHFFFAOYSA-N

> <PUBCHEM_XLOGP3>
2.2

> <PUBCHEM_EXACT_MASS>
190.056469

> <PUBCHEM_MOLECULAR_FORMULA>
C10H10N2S

> <PUBCHEM_MOLECULAR_WEIGHT>
190.2648

> <PUBCHEM_OPENEYE_CAN_SMILES>
CCC1=NC(=S)C2=CC=CC=C2N1

> <PUBCHEM_OPENEYE_ISO_SMILES>
CCC1=NC(=S)C2=CC=CC=C2N1

> <PUBCHEM_CACTVS_TPSA>
56.5

> <PUBCHEM_MONOISOTOPIC_WEIGHT>
190.056469

> <PUBCHEM_TOTAL_CHARGE>
0

> <PUBCHEM_HEAVY_ATOM_COUNT>
13

> <PUBCHEM_ATOM_DEF_STEREO_COUNT>
0

> <PUBCHEM_ATOM_UDEF_STEREO_COUNT>
0

> <PUBCHEM_BOND_DEF_STEREO_COUNT>
0

> <PUBCHEM_BOND_UDEF_STEREO_COUNT>
0

> <PUBCHEM_ISOTOPIC_ATOM_COUNT>
0

> <PUBCHEM_COMPONENT_COUNT>
1

> <PUBCHEM_CACTVS_TAUTO_COUNT>
12

> <PUBCHEM_COORDINATE_TYPE>
1
5
255

> <PUBCHEM_BONDANNOTATIONS>
10  13  8
12  13  8
2  4  8
2  5  8
3  5  8
3  8  8
4  6  8
4  9  8
6  10  8
6  8  8
9  12  8

$$$$
