28375853
  -OEChem-05261314332D

 25 25  0     0  0  0  0  0  0999 V2000
    5.4641    3.5000    0.0000 Cl  0  0  0  0  0  0  0  0  0  0  0  0
    3.7320   -3.5000    0.0000 Cl  0  0  0  0  0  0  0  0  0  0  0  0
    3.7320    0.5000    0.0000 O   0  0  0  0  0  0  0  0  0  0  0  0
    4.5981    2.0000    0.0000 C   0  0  0  0  0  0  0  0  0  0  0  0
    4.5981    1.0000    0.0000 C   0  0  0  0  0  0  0  0  0  0  0  0
    3.7320   -0.5000    0.0000 C   0  0  0  0  0  0  0  0  0  0  0  0
    2.8660   -2.0000    0.0000 C   0  0  0  0  0  0  0  0  0  0  0  0
    2.8660   -1.0000    0.0000 C   0  0  0  0  0  0  0  0  0  0  0  0
    5.4641    2.5000    0.0000 C   0  0  0  0  0  0  0  0  0  0  0  0
    4.5981   -1.0000    0.0000 C   0  0  0  0  0  0  0  0  0  0  0  0
    3.7320   -2.5000    0.0000 C   0  0  0  0  0  0  0  0  0  0  0  0
    4.5981   -2.0000    0.0000 C   0  0  0  0  0  0  0  0  0  0  0  0
    2.0000   -2.5000    0.0000 C   0  0  0  0  0  0  0  0  0  0  0  0
    4.3860    2.5826    0.0000 H   0  0  0  0  0  0  0  0  0  0  0  0
    3.9875    1.8923    0.0000 H   0  0  0  0  0  0  0  0  0  0  0  0
    4.8101    0.4174    0.0000 H   0  0  0  0  0  0  0  0  0  0  0  0
    5.2087    1.1077    0.0000 H   0  0  0  0  0  0  0  0  0  0  0  0
    2.3291   -0.6900    0.0000 H   0  0  0  0  0  0  0  0  0  0  0  0
    5.6762    1.9174    0.0000 H   0  0  0  0  0  0  0  0  0  0  0  0
    6.0747    2.6077    0.0000 H   0  0  0  0  0  0  0  0  0  0  0  0
    5.1350   -0.6900    0.0000 H   0  0  0  0  0  0  0  0  0  0  0  0
    5.1350   -2.3100    0.0000 H   0  0  0  0  0  0  0  0  0  0  0  0
    1.6900   -1.9631    0.0000 H   0  0  0  0  0  0  0  0  0  0  0  0
    1.4631   -2.8100    0.0000 H   0  0  0  0  0  0  0  0  0  0  0  0
    2.3100   -3.0369    0.0000 H   0  0  0  0  0  0  0  0  0  0  0  0
  1  9  1  0  0  0  0
  2 11  1  0  0  0  0
  3  5  1  0  0  0  0
  3  6  1  0  0  0  0
  4  5  1  0  0  0  0
  4  9  1  0  0  0  0
  4 14  1  0  0  0  0
  4 15  1  0  0  0  0
  5 16  1  0  0  0  0
  5 17  1  0  0  0  0
  6  8  2  0  0  0  0
  6 10  1  0  0  0  0
  7  8  1  0  0  0  0
  7 11  2  0  0  0  0
  7 13  1  0  0  0  0
  8 18  1  0  0  0  0
  9 19  1  0  0  0  0
  9 20  1  0  0  0  0
 10 12  2  0  0  0  0
 10 21  1  0  0  0  0
 11 12  1  0  0  0  0
 12 22  1  0  0  0  0
 13 23  1  0  0  0  0
 13 24  1  0  0  0  0
 13 25  1  0  0  0  0
M  END
> <PUBCHEM_COMPOUND_CID>
28375853

> <PUBCHEM_COMPOUND_CANONICALIZED>
1

> <PUBCHEM_CACTVS_COMPLEXITY>
141

> <PUBCHEM_CACTVS_HBOND_ACCEPTOR>
1

> <PUBCHEM_CACTVS_HBOND_DONOR>
0

> <PUBCHEM_CACTVS_ROTATABLE_BOND>
4

> <PUBCHEM_CACTVS_SUBSKEYS>
AAADccBwIAAGAAAAAAAAAAAAAAAAAAAAAAAwAAAAAAAAAAABAAAAGgIAAAAADAegmGIyBoAABACAAiBCAAACCAAgJQAIiAAGCogMJiKFMxqCOCCkwBEIqAeAwBAOACABAAABAAAAQAIAAAIAAAAAAAAAAA==

> <PUBCHEM_IUPAC_OPENEYE_NAME>
1-chloro-4-(3-chloropropoxy)-2-methyl-benzene

> <PUBCHEM_IUPAC_CAS_NAME>
1-chloro-4-(3-chloropropoxy)-2-methylbenzene

> <PUBCHEM_IUPAC_NAME>
1-chloro-4-(3-chloropropoxy)-2-methylbenzene

> <PUBCHEM_IUPAC_SYSTEMATIC_NAME>
1-chloranyl-4-(3-chloranylpropoxy)-2-methyl-benzene

> <PUBCHEM_IUPAC_TRADITIONAL_NAME>
1-chloro-4-(3-chloropropoxy)-2-methyl-benzene

> <PUBCHEM_IUPAC_INCHI>
InChI=1S/C10H12Cl2O/c1-8-7-9(3-4-10(8)12)13-6-2-5-11/h3-4,7H,2,5-6H2,1H3

> <PUBCHEM_IUPAC_INCHIKEY>
VTZVURQGIRYVKQ-UHFFFAOYSA-N

> <PUBCHEM_XLOGP3>
4.4

> <PUBCHEM_EXACT_MASS>
218.02652

> <PUBCHEM_MOLECULAR_FORMULA>
C10H12Cl2O

> <PUBCHEM_MOLECULAR_WEIGHT>
219.10768

> <PUBCHEM_OPENEYE_CAN_SMILES>
CC1=C(C=CC(=C1)OCCCCl)Cl

> <PUBCHEM_OPENEYE_ISO_SMILES>
CC1=C(C=CC(=C1)OCCCCl)Cl

> <PUBCHEM_CACTVS_TPSA>
9.2

> <PUBCHEM_MONOISOTOPIC_WEIGHT>
218.02652

> <PUBCHEM_TOTAL_CHARGE>
0

> <PUBCHEM_HEAVY_ATOM_COUNT>
13

> <PUBCHEM_ATOM_DEF_STEREO_COUNT>
0

> <PUBCHEM_ATOM_UDEF_STEREO_COUNT>
0

> <PUBCHEM_BOND_DEF_STEREO_COUNT>
0

> <PUBCHEM_BOND_UDEF_STEREO_COUNT>
0

> <PUBCHEM_ISOTOPIC_ATOM_COUNT>
0

> <PUBCHEM_COMPONENT_COUNT>
1

> <PUBCHEM_CACTVS_TAUTO_COUNT>
1

> <PUBCHEM_COORDINATE_TYPE>
1
5
255

> <PUBCHEM_BONDANNOTATIONS>
10  12  8
11  12  8
6  10  8
6  8  8
7  11  8
7  8  8

$$$$
28382857
  -OEChem-05261314332D

 33 34  0     1  0  0  0  0  0999 V2000
    4.2690    1.4806    0.0000 N   0  3  0  0  0  0  0  0  0  0  0  0
    2.5369    0.4806    0.0000 N   0  0  0  0  0  0  0  0  0  0  0  0
    4.5780    2.4316    0.0000 C   0  0  0  0  0  0  0  0  0  0  0  0
    3.2690    1.4806    0.0000 C   0  0  0  0  0  0  0  0  0  0  0  0
    3.7690    3.0194    0.0000 C   0  0  0  0  0  0  0  0  0  0  0  0
    2.9600    2.4316    0.0000 C   0  0  0  0  0  0  0  0  0  0  0  0
    4.2690    0.4806    0.0000 C   0  0  0  0  0  0  0  0  0  0  0  0
    3.4030   -0.0194    0.0000 C   0  0  1  0  0  0  0  0  0  0  0  0
    3.4030   -1.0194    0.0000 C   0  0  0  0  0  0  0  0  0  0  0  0
    2.5369   -1.5194    0.0000 C   0  0  0  0  0  0  0  0  0  0  0  0
    4.2690   -1.5194    0.0000 C   0  0  0  0  0  0  0  0  0  0  0  0
    2.5369   -2.5194    0.0000 C   0  0  0  0  0  0  0  0  0  0  0  0
    4.2690   -2.5194    0.0000 C   0  0  0  0  0  0  0  0  0  0  0  0
    3.4030   -3.0194    0.0000 C   0  0  0  0  0  0  0  0  0  0  0  0
    5.2200    1.1716    0.0000 H   0  0  0  0  0  0  0  0  0  0  0  0
    5.1444    2.1795    0.0000 H   0  0  0  0  0  0  0  0  0  0  0  0
    4.8880    2.9686    0.0000 H   0  0  0  0  0  0  0  0  0  0  0  0
    2.6625    1.3517    0.0000 H   0  0  0  0  0  0  0  0  0  0  0  0
    3.3338    0.8640    0.0000 H   0  0  0  0  0  0  0  0  0  0  0  0
    4.1838    3.4802    0.0000 H   0  0  0  0  0  0  0  0  0  0  0  0
    3.3541    3.4802    0.0000 H   0  0  0  0  0  0  0  0  0  0  0  0
    2.6500    2.9686    0.0000 H   0  0  0  0  0  0  0  0  0  0  0  0
    2.3936    2.1795    0.0000 H   0  0  0  0  0  0  0  0  0  0  0  0
    4.4810   -0.1020    0.0000 H   0  0  0  0  0  0  0  0  0  0  0  0
    4.8796    0.5882    0.0000 H   0  0  0  0  0  0  0  0  0  0  0  0
    3.4030    0.6006    0.0000 H   0  0  0  0  0  0  0  0  0  0  0  0
    2.0000    0.1706    0.0000 H   0  0  0  0  0  0  0  0  0  0  0  0
    2.5369    1.1006    0.0000 H   0  0  0  0  0  0  0  0  0  0  0  0
    2.0000   -1.2094    0.0000 H   0  0  0  0  0  0  0  0  0  0  0  0
    4.8059   -1.2094    0.0000 H   0  0  0  0  0  0  0  0  0  0  0  0
    2.0000   -2.8294    0.0000 H   0  0  0  0  0  0  0  0  0  0  0  0
    4.8059   -2.8294    0.0000 H   0  0  0  0  0  0  0  0  0  0  0  0
    3.4030   -3.6394    0.0000 H   0  0  0  0  0  0  0  0  0  0  0  0
  1  3  1  0  0  0  0
  1  4  1  0  0  0  0
  1  7  1  0  0  0  0
  1 15  1  0  0  0  0
  8  2  1  1  0  0  0
  2 27  1  0  0  0  0
  2 28  1  0  0  0  0
  3  5  1  0  0  0  0
  3 16  1  0  0  0  0
  3 17  1  0  0  0  0
  4  6  1  0  0  0  0
  4 18  1  0  0  0  0
  4 19  1  0  0  0  0
  5  6  1  0  0  0  0
  5 20  1  0  0  0  0
  5 21  1  0  0  0  0
  6 22  1  0  0  0  0
  6 23  1  0  0  0  0
  7  8  1  0  0  0  0
  7 24  1  0  0  0  0
  7 25  1  0  0  0  0
  8  9  1  0  0  0  0
  8 26  1  0  0  0  0
  9 10  2  0  0  0  0
  9 11  1  0  0  0  0
 10 12  1  0  0  0  0
 10 29  1  0  0  0  0
 11 13  2  0  0  0  0
 11 30  1  0  0  0  0
 12 14  2  0  0  0  0
 12 31  1  0  0  0  0
 13 14  1  0  0  0  0
 13 32  1  0  0  0  0
 14 33  1  0  0  0  0
M  CHG  1   1   1
M  END
> <PUBCHEM_COMPOUND_CID>
28382857

> <PUBCHEM_COMPOUND_CANONICALIZED>
1

> <PUBCHEM_CACTVS_COMPLEXITY>
158

> <PUBCHEM_CACTVS_HBOND_ACCEPTOR>
1

> <PUBCHEM_CACTVS_HBOND_DONOR>
2

> <PUBCHEM_CACTVS_ROTATABLE_BOND>
3

> <PUBCHEM_CACTVS_SUBSKEYS>
AAADceBzAAAAAAAAAAAAAAAAAAAAAWAAAAAwAAAAAAAAAAABAAAAHAAQAAAADCjBGAQwAIPAAACAAiBCAACCAAAgAAAIiIAIBIgIYCKAkRGUIABgkACIiAcQgIAOAAAAAAAAAAAAAAAAAAAAAAAAAAAAAA==

> <PUBCHEM_IUPAC_OPENEYE_NAME>
(1R)-1-phenyl-2-pyrrolidin-1-ium-1-yl-ethanamine

> <PUBCHEM_IUPAC_CAS_NAME>
(1R)-1-phenyl-2-(1-pyrrolidin-1-iumyl)ethanamine

> <PUBCHEM_IUPAC_NAME>
(1R)-1-phenyl-2-pyrrolidin-1-ium-1-ylethanamine

> <PUBCHEM_IUPAC_SYSTEMATIC_NAME>
(1R)-1-phenyl-2-pyrrolidin-1-ium-1-yl-ethanamine

> <PUBCHEM_IUPAC_TRADITIONAL_NAME>
[(1R)-1-phenyl-2-pyrrolidin-1-ium-1-yl-ethyl]amine

> <PUBCHEM_IUPAC_INCHI>
InChI=1S/C12H18N2/c13-12(10-14-8-4-5-9-14)11-6-2-1-3-7-11/h1-3,6-7,12H,4-5,8-10,13H2/p+1/t12-/m0/s1

> <PUBCHEM_IUPAC_INCHIKEY>
NIIHRUKAVZEIRO-LBPRGKRZSA-O

> <PUBCHEM_XLOGP3>
1.1

> <PUBCHEM_EXACT_MASS>
191.154824

> <PUBCHEM_MOLECULAR_FORMULA>
C12H19N2+

> <PUBCHEM_MOLECULAR_WEIGHT>
191.29266

> <PUBCHEM_OPENEYE_CAN_SMILES>
C1CC[NH+](C1)CC(C2=CC=CC=C2)N

> <PUBCHEM_OPENEYE_ISO_SMILES>
C1CC[NH+](C1)C[C@@H](C2=CC=CC=C2)N

> <PUBCHEM_CACTVS_TPSA>
30.5

> <PUBCHEM_MONOISOTOPIC_WEIGHT>
191.154824

> <PUBCHEM_TOTAL_CHARGE>
1

> <PUBCHEM_HEAVY_ATOM_COUNT>
14

> <PUBCHEM_ATOM_DEF_STEREO_COUNT>
1

> <PUBCHEM_ATOM_UDEF_STEREO_COUNT>
0

> <PUBCHEM_BOND_DEF_STEREO_COUNT>
0

> <PUBCHEM_BOND_UDEF_STEREO_COUNT>
0

> <PUBCHEM_ISOTOPIC_ATOM_COUNT>
0

> <PUBCHEM_COMPONENT_COUNT>
1

> <PUBCHEM_CACTVS_TAUTO_COUNT>
1

> <PUBCHEM_COORDINATE_TYPE>
1
5
255

> <PUBCHEM_BONDANNOTATIONS>
10  12  8
11  13  8
12  14  8
13  14  8
8  2  5
9  10  8
9  11  8

$$$$
28382859
  -OEChem-05261314332D

 33 34  0     1  0  0  0  0  0999 V2000
    4.2690    1.4806    0.0000 N   0  3  0  0  0  0  0  0  0  0  0  0
    2.5369    0.4806    0.0000 N   0  0  0  0  0  0  0  0  0  0  0  0
    4.5780    2.4316    0.0000 C   0  0  0  0  0  0  0  0  0  0  0  0
    3.2690    1.4806    0.0000 C   0  0  0  0  0  0  0  0  0  0  0  0
    3.7690    3.0194    0.0000 C   0  0  0  0  0  0  0  0  0  0  0  0
    2.9600    2.4316    0.0000 C   0  0  0  0  0  0  0  0  0  0  0  0
    4.2690    0.4806    0.0000 C   0  0  0  0  0  0  0  0  0  0  0  0
    3.4030   -0.0194    0.0000 C   0  0  2  0  0  0  0  0  0  0  0  0
    3.4030   -1.0194    0.0000 C   0  0  0  0  0  0  0  0  0  0  0  0
    2.5369   -1.5194    0.0000 C   0  0  0  0  0  0  0  0  0  0  0  0
    4.2690   -1.5194    0.0000 C   0  0  0  0  0  0  0  0  0  0  0  0
    2.5369   -2.5194    0.0000 C   0  0  0  0  0  0  0  0  0  0  0  0
    4.2690   -2.5194    0.0000 C   0  0  0  0  0  0  0  0  0  0  0  0
    3.4030   -3.0194    0.0000 C   0  0  0  0  0  0  0  0  0  0  0  0
    5.2200    1.1716    0.0000 H   0  0  0  0  0  0  0  0  0  0  0  0
    5.1444    2.1795    0.0000 H   0  0  0  0  0  0  0  0  0  0  0  0
    4.8880    2.9686    0.0000 H   0  0  0  0  0  0  0  0  0  0  0  0
    2.6625    1.3517    0.0000 H   0  0  0  0  0  0  0  0  0  0  0  0
    3.3338    0.8640    0.0000 H   0  0  0  0  0  0  0  0  0  0  0  0
    4.1838    3.4802    0.0000 H   0  0  0  0  0  0  0  0  0  0  0  0
    3.3541    3.4802    0.0000 H   0  0  0  0  0  0  0  0  0  0  0  0
    2.6500    2.9686    0.0000 H   0  0  0  0  0  0  0  0  0  0  0  0
    2.3936    2.1795    0.0000 H   0  0  0  0  0  0  0  0  0  0  0  0
    4.4810   -0.1020    0.0000 H   0  0  0  0  0  0  0  0  0  0  0  0
    4.8796    0.5882    0.0000 H   0  0  0  0  0  0  0  0  0  0  0  0
    3.4030    0.6006    0.0000 H   0  0  0  0  0  0  0  0  0  0  0  0
    2.0000    0.1706    0.0000 H   0  0  0  0  0  0  0  0  0  0  0  0
    2.5369    1.1006    0.0000 H   0  0  0  0  0  0  0  0  0  0  0  0
    2.0000   -1.2094    0.0000 H   0  0  0  0  0  0  0  0  0  0  0  0
    4.8059   -1.2094    0.0000 H   0  0  0  0  0  0  0  0  0  0  0  0
    2.0000   -2.8294    0.0000 H   0  0  0  0  0  0  0  0  0  0  0  0
    4.8059   -2.8294    0.0000 H   0  0  0  0  0  0  0  0  0  0  0  0
    3.4030   -3.6394    0.0000 H   0  0  0  0  0  0  0  0  0  0  0  0
  1  3  1  0  0  0  0
  1  4  1  0  0  0  0
  1  7  1  0  0  0  0
  1 15  1  0  0  0  0
  8  2  1  6  0  0  0
  2 27  1  0  0  0  0
  2 28  1  0  0  0  0
  3  5  1  0  0  0  0
  3 16  1  0  0  0  0
  3 17  1  0  0  0  0
  4  6  1  0  0  0  0
  4 18  1  0  0  0  0
  4 19  1  0  0  0  0
  5  6  1  0  0  0  0
  5 20  1  0  0  0  0
  5 21  1  0  0  0  0
  6 22  1  0  0  0  0
  6 23  1  0  0  0  0
  7  8  1  0  0  0  0
  7 24  1  0  0  0  0
  7 25  1  0  0  0  0
  8  9  1  0  0  0  0
  8 26  1  0  0  0  0
  9 10  2  0  0  0  0
  9 11  1  0  0  0  0
 10 12  1  0  0  0  0
 10 29  1  0  0  0  0
 11 13  2  0  0  0  0
 11 30  1  0  0  0  0
 12 14  2  0  0  0  0
 12 31  1  0  0  0  0
 13 14  1  0  0  0  0
 13 32  1  0  0  0  0
 14 33  1  0  0  0  0
M  CHG  1   1   1
M  END
> <PUBCHEM_COMPOUND_CID>
28382859

> <PUBCHEM_COMPOUND_CANONICALIZED>
1

> <PUBCHEM_CACTVS_COMPLEXITY>
158

> <PUBCHEM_CACTVS_HBOND_ACCEPTOR>
1

> <PUBCHEM_CACTVS_HBOND_DONOR>
2

> <PUBCHEM_CACTVS_ROTATABLE_BOND>
3

> <PUBCHEM_CACTVS_SUBSKEYS>
AAADceBzAAAAAAAAAAAAAAAAAAAAAWAAAAAwAAAAAAAAAAABAAAAHAAQAAAADCjBGAQwAIPAAACAAiBCAACCAAAgAAAIiIAIBIgIYCKAkRGUIABgkACIiAcQgIAOAAAAAAAAAAAAAAAAAAAAAAAAAAAAAA==

> <PUBCHEM_IUPAC_OPENEYE_NAME>
(1S)-1-phenyl-2-pyrrolidin-1-ium-1-yl-ethanamine

> <PUBCHEM_IUPAC_CAS_NAME>
(1S)-1-phenyl-2-(1-pyrrolidin-1-iumyl)ethanamine

> <PUBCHEM_IUPAC_NAME>
(1S)-1-phenyl-2-pyrrolidin-1-ium-1-ylethanamine

> <PUBCHEM_IUPAC_SYSTEMATIC_NAME>
(1S)-1-phenyl-2-pyrrolidin-1-ium-1-yl-ethanamine

> <PUBCHEM_IUPAC_TRADITIONAL_NAME>
[(1S)-1-phenyl-2-pyrrolidin-1-ium-1-yl-ethyl]amine

> <PUBCHEM_IUPAC_INCHI>
InChI=1S/C12H18N2/c13-12(10-14-8-4-5-9-14)11-6-2-1-3-7-11/h1-3,6-7,12H,4-5,8-10,13H2/p+1/t12-/m1/s1

> <PUBCHEM_IUPAC_INCHIKEY>
NIIHRUKAVZEIRO-GFCCVEGCSA-O

> <PUBCHEM_XLOGP3>
1.1

> <PUBCHEM_EXACT_MASS>
191.154824

> <PUBCHEM_MOLECULAR_FORMULA>
C12H19N2+

> <PUBCHEM_MOLECULAR_WEIGHT>
191.29266

> <PUBCHEM_OPENEYE_CAN_SMILES>
C1CC[NH+](C1)CC(C2=CC=CC=C2)N

> <PUBCHEM_OPENEYE_ISO_SMILES>
C1CC[NH+](C1)C[C@H](C2=CC=CC=C2)N

> <PUBCHEM_CACTVS_TPSA>
30.5

> <PUBCHEM_MONOISOTOPIC_WEIGHT>
191.154824

> <PUBCHEM_TOTAL_CHARGE>
1

> <PUBCHEM_HEAVY_ATOM_COUNT>
14

> <PUBCHEM_ATOM_DEF_STEREO_COUNT>
1

> <PUBCHEM_ATOM_UDEF_STEREO_COUNT>
0

> <PUBCHEM_BOND_DEF_STEREO_COUNT>
0

> <PUBCHEM_BOND_UDEF_STEREO_COUNT>
0

> <PUBCHEM_ISOTOPIC_ATOM_COUNT>
0

> <PUBCHEM_COMPONENT_COUNT>
1

> <PUBCHEM_CACTVS_TAUTO_COUNT>
1

> <PUBCHEM_COORDINATE_TYPE>
1
5
255

> <PUBCHEM_BONDANNOTATIONS>
10  12  8
11  13  8
12  14  8
13  14  8
8  2  6
9  10  8
9  11  8

$$$$
28382861
  -OEChem-05261314332D

 36 37  0     1  0  0  0  0  0999 V2000
    5.5000    0.7321    0.0000 N   0  3  0  0  0  0  0  0  0  0  0  0
    3.5000    0.7321    0.0000 N   0  0  0  0  0  0  0  0  0  0  0  0
    4.6340    1.2320    0.0000 C   0  0  0  0  0  0  0  0  0  0  0  0
    6.3660    1.2320    0.0000 C   0  0  0  0  0  0  0  0  0  0  0  0
    5.0000   -0.1340    0.0000 C   0  0  0  0  0  0  0  0  0  0  0  0
    4.6340    2.2320    0.0000 C   0  0  0  0  0  0  0  0  0  0  0  0
    6.3660    2.2320    0.0000 C   0  0  0  0  0  0  0  0  0  0  0  0
    5.5000    2.7320    0.0000 C   0  0  0  0  0  0  0  0  0  0  0  0
    4.0000   -0.1340    0.0000 C   0  0  1  0  0  0  0  0  0  0  0  0
    3.5000   -1.0000    0.0000 C   0  0  0  0  0  0  0  0  0  0  0  0
    2.5000   -1.0000    0.0000 C   0  0  0  0  0  0  0  0  0  0  0  0
    4.0000   -1.8660    0.0000 C   0  0  0  0  0  0  0  0  0  0  0  0
    2.0000   -1.8660    0.0000 C   0  0  0  0  0  0  0  0  0  0  0  0
    3.5000   -2.7320    0.0000 C   0  0  0  0  0  0  0  0  0  0  0  0
    2.5000   -2.7320    0.0000 C   0  0  0  0  0  0  0  0  0  0  0  0
    5.8100    0.1951    0.0000 H   0  0  0  0  0  0  0  0  0  0  0  0
    4.0234    1.3397    0.0000 H   0  0  0  0  0  0  0  0  0  0  0  0
    4.4219    0.6494    0.0000 H   0  0  0  0  0  0  0  0  0  0  0  0
    6.5781    0.6494    0.0000 H   0  0  0  0  0  0  0  0  0  0  0  0
    6.9766    1.3397    0.0000 H   0  0  0  0  0  0  0  0  0  0  0  0
    4.8923   -0.7446    0.0000 H   0  0  0  0  0  0  0  0  0  0  0  0
    5.5826   -0.3460    0.0000 H   0  0  0  0  0  0  0  0  0  0  0  0
    4.4219    2.8147    0.0000 H   0  0  0  0  0  0  0  0  0  0  0  0
    4.0234    2.1244    0.0000 H   0  0  0  0  0  0  0  0  0  0  0  0
    6.9766    2.1244    0.0000 H   0  0  0  0  0  0  0  0  0  0  0  0
    6.5781    2.8147    0.0000 H   0  0  0  0  0  0  0  0  0  0  0  0
    5.8985    3.2070    0.0000 H   0  0  0  0  0  0  0  0  0  0  0  0
    5.1015    3.2070    0.0000 H   0  0  0  0  0  0  0  0  0  0  0  0
    3.3800   -0.1340    0.0000 H   0  0  0  0  0  0  0  0  0  0  0  0
    2.8800    0.7321    0.0000 H   0  0  0  0  0  0  0  0  0  0  0  0
    3.8100    1.2690    0.0000 H   0  0  0  0  0  0  0  0  0  0  0  0
    2.1900   -0.4631    0.0000 H   0  0  0  0  0  0  0  0  0  0  0  0
    4.6200   -1.8660    0.0000 H   0  0  0  0  0  0  0  0  0  0  0  0
    1.3800   -1.8660    0.0000 H   0  0  0  0  0  0  0  0  0  0  0  0
    3.8100   -3.2690    0.0000 H   0  0  0  0  0  0  0  0  0  0  0  0
    2.1900   -3.2690    0.0000 H   0  0  0  0  0  0  0  0  0  0  0  0
  1  3  1  0  0  0  0
  1  4  1  0  0  0  0
  1  5  1  0  0  0  0
  1 16  1  0  0  0  0
  9  2  1  1  0  0  0
  2 30  1  0  0  0  0
  2 31  1  0  0  0  0
  3  6  1  0  0  0  0
  3 17  1  0  0  0  0
  3 18  1  0  0  0  0
  4  7  1  0  0  0  0
  4 19  1  0  0  0  0
  4 20  1  0  0  0  0
  5  9  1  0  0  0  0
  5 21  1  0  0  0  0
  5 22  1  0  0  0  0
  6  8  1  0  0  0  0
  6 23  1  0  0  0  0
  6 24  1  0  0  0  0
  7  8  1  0  0  0  0
  7 25  1  0  0  0  0
  7 26  1  0  0  0  0
  8 27  1  0  0  0  0
  8 28  1  0  0  0  0
  9 10  1  0  0  0  0
  9 29  1  0  0  0  0
 10 11  2  0  0  0  0
 10 12  1  0  0  0  0
 11 13  1  0  0  0  0
 11 32  1  0  0  0  0
 12 14  2  0  0  0  0
 12 33  1  0  0  0  0
 13 15  2  0  0  0  0
 13 34  1  0  0  0  0
 14 15  1  0  0  0  0
 14 35  1  0  0  0  0
 15 36  1  0  0  0  0
M  CHG  1   1   1
M  END
> <PUBCHEM_COMPOUND_CID>
28382861

> <PUBCHEM_COMPOUND_CANONICALIZED>
1

> <PUBCHEM_CACTVS_COMPLEXITY>
169

> <PUBCHEM_CACTVS_HBOND_ACCEPTOR>
1

> <PUBCHEM_CACTVS_HBOND_DONOR>
2

> <PUBCHEM_CACTVS_ROTATABLE_BOND>
3

> <PUBCHEM_CACTVS_SUBSKEYS>
AAADceBzAAAAAAAAAAAAAAAAAAAAAAAAAAA8QAAAAAAAAAABAAAAHAAQAAAADCjBGAQwAIPAAACAAiBCAACCAAAgAAAIiIAIBIgIYCKAkRGUIABgkACIiAcQgIAOAAAAAAAAAAAAAAAAAAAAAAAAAAAAAA==

> <PUBCHEM_IUPAC_OPENEYE_NAME>
(1R)-1-phenyl-2-piperidin-1-ium-1-yl-ethanamine

> <PUBCHEM_IUPAC_CAS_NAME>
(1R)-1-phenyl-2-(1-piperidin-1-iumyl)ethanamine

> <PUBCHEM_IUPAC_NAME>
(1R)-1-phenyl-2-piperidin-1-ium-1-ylethanamine

> <PUBCHEM_IUPAC_SYSTEMATIC_NAME>
(1R)-1-phenyl-2-piperidin-1-ium-1-yl-ethanamine

> <PUBCHEM_IUPAC_TRADITIONAL_NAME>
[(1R)-1-phenyl-2-piperidin-1-ium-1-yl-ethyl]amine

> <PUBCHEM_IUPAC_INCHI>
InChI=1S/C13H20N2/c14-13(12-7-3-1-4-8-12)11-15-9-5-2-6-10-15/h1,3-4,7-8,13H,2,5-6,9-11,14H2/p+1/t13-/m0/s1

> <PUBCHEM_IUPAC_INCHIKEY>
XNUTYKUKRPEFKX-ZDUSSCGKSA-O

> <PUBCHEM_XLOGP3>
1.5

> <PUBCHEM_EXACT_MASS>
205.170474

> <PUBCHEM_MOLECULAR_FORMULA>
C13H21N2+

> <PUBCHEM_MOLECULAR_WEIGHT>
205.31924

> <PUBCHEM_OPENEYE_CAN_SMILES>
C1CC[NH+](CC1)CC(C2=CC=CC=C2)N

> <PUBCHEM_OPENEYE_ISO_SMILES>
C1CC[NH+](CC1)C[C@@H](C2=CC=CC=C2)N

> <PUBCHEM_CACTVS_TPSA>
30.5

> <PUBCHEM_MONOISOTOPIC_WEIGHT>
205.170474

> <PUBCHEM_TOTAL_CHARGE>
1

> <PUBCHEM_HEAVY_ATOM_COUNT>
15

> <PUBCHEM_ATOM_DEF_STEREO_COUNT>
1

> <PUBCHEM_ATOM_UDEF_STEREO_COUNT>
0

> <PUBCHEM_BOND_DEF_STEREO_COUNT>
0

> <PUBCHEM_BOND_UDEF_STEREO_COUNT>
0

> <PUBCHEM_ISOTOPIC_ATOM_COUNT>
0

> <PUBCHEM_COMPONENT_COUNT>
1

> <PUBCHEM_CACTVS_TAUTO_COUNT>
1

> <PUBCHEM_COORDINATE_TYPE>
1
5
255

> <PUBCHEM_BONDANNOTATIONS>
10  11  8
10  12  8
11  13  8
12  14  8
13  15  8
14  15  8
9  2  5

$$$$
28382864
  -OEChem-05261314332D

 36 37  0     1  0  0  0  0  0999 V2000
    5.5000    0.7321    0.0000 N   0  3  0  0  0  0  0  0  0  0  0  0
    3.5000    0.7321    0.0000 N   0  0  0  0  0  0  0  0  0  0  0  0
    4.6340    1.2320    0.0000 C   0  0  0  0  0  0  0  0  0  0  0  0
    6.3660    1.2320    0.0000 C   0  0  0  0  0  0  0  0  0  0  0  0
    5.0000   -0.1340    0.0000 C   0  0  0  0  0  0  0  0  0  0  0  0
    4.6340    2.2320    0.0000 C   0  0  0  0  0  0  0  0  0  0  0  0
    6.3660    2.2320    0.0000 C   0  0  0  0  0  0  0  0  0  0  0  0
    5.5000    2.7320    0.0000 C   0  0  0  0  0  0  0  0  0  0  0  0
    4.0000   -0.1340    0.0000 C   0  0  2  0  0  0  0  0  0  0  0  0
    3.5000   -1.0000    0.0000 C   0  0  0  0  0  0  0  0  0  0  0  0
    2.5000   -1.0000    0.0000 C   0  0  0  0  0  0  0  0  0  0  0  0
    4.0000   -1.8660    0.0000 C   0  0  0  0  0  0  0  0  0  0  0  0
    2.0000   -1.8660    0.0000 C   0  0  0  0  0  0  0  0  0  0  0  0
    3.5000   -2.7320    0.0000 C   0  0  0  0  0  0  0  0  0  0  0  0
    2.5000   -2.7320    0.0000 C   0  0  0  0  0  0  0  0  0  0  0  0
    5.8100    0.1951    0.0000 H   0  0  0  0  0  0  0  0  0  0  0  0
    4.0234    1.3397    0.0000 H   0  0  0  0  0  0  0  0  0  0  0  0
    4.4219    0.6494    0.0000 H   0  0  0  0  0  0  0  0  0  0  0  0
    6.5781    0.6494    0.0000 H   0  0  0  0  0  0  0  0  0  0  0  0
    6.9766    1.3397    0.0000 H   0  0  0  0  0  0  0  0  0  0  0  0
    4.8923   -0.7446    0.0000 H   0  0  0  0  0  0  0  0  0  0  0  0
    5.5826   -0.3460    0.0000 H   0  0  0  0  0  0  0  0  0  0  0  0
    4.4219    2.8147    0.0000 H   0  0  0  0  0  0  0  0  0  0  0  0
    4.0234    2.1244    0.0000 H   0  0  0  0  0  0  0  0  0  0  0  0
    6.9766    2.1244    0.0000 H   0  0  0  0  0  0  0  0  0  0  0  0
    6.5781    2.8147    0.0000 H   0  0  0  0  0  0  0  0  0  0  0  0
    5.8985    3.2070    0.0000 H   0  0  0  0  0  0  0  0  0  0  0  0
    5.1015    3.2070    0.0000 H   0  0  0  0  0  0  0  0  0  0  0  0
    3.3800   -0.1340    0.0000 H   0  0  0  0  0  0  0  0  0  0  0  0
    2.8800    0.7321    0.0000 H   0  0  0  0  0  0  0  0  0  0  0  0
    3.8100    1.2690    0.0000 H   0  0  0  0  0  0  0  0  0  0  0  0
    2.1900   -0.4631    0.0000 H   0  0  0  0  0  0  0  0  0  0  0  0
    4.6200   -1.8660    0.0000 H   0  0  0  0  0  0  0  0  0  0  0  0
    1.3800   -1.8660    0.0000 H   0  0  0  0  0  0  0  0  0  0  0  0
    3.8100   -3.2690    0.0000 H   0  0  0  0  0  0  0  0  0  0  0  0
    2.1900   -3.2690    0.0000 H   0  0  0  0  0  0  0  0  0  0  0  0
  1  3  1  0  0  0  0
  1  4  1  0  0  0  0
  1  5  1  0  0  0  0
  1 16  1  0  0  0  0
  9  2  1  6  0  0  0
  2 30  1  0  0  0  0
  2 31  1  0  0  0  0
  3  6  1  0  0  0  0
  3 17  1  0  0  0  0
  3 18  1  0  0  0  0
  4  7  1  0  0  0  0
  4 19  1  0  0  0  0
  4 20  1  0  0  0  0
  5  9  1  0  0  0  0
  5 21  1  0  0  0  0
  5 22  1  0  0  0  0
  6  8  1  0  0  0  0
  6 23  1  0  0  0  0
  6 24  1  0  0  0  0
  7  8  1  0  0  0  0
  7 25  1  0  0  0  0
  7 26  1  0  0  0  0
  8 27  1  0  0  0  0
  8 28  1  0  0  0  0
  9 10  1  0  0  0  0
  9 29  1  0  0  0  0
 10 11  2  0  0  0  0
 10 12  1  0  0  0  0
 11 13  1  0  0  0  0
 11 32  1  0  0  0  0
 12 14  2  0  0  0  0
 12 33  1  0  0  0  0
 13 15  2  0  0  0  0
 13 34  1  0  0  0  0
 14 15  1  0  0  0  0
 14 35  1  0  0  0  0
 15 36  1  0  0  0  0
M  CHG  1   1   1
M  END
> <PUBCHEM_COMPOUND_CID>
28382864

> <PUBCHEM_COMPOUND_CANONICALIZED>
1

> <PUBCHEM_CACTVS_COMPLEXITY>
169

> <PUBCHEM_CACTVS_HBOND_ACCEPTOR>
1

> <PUBCHEM_CACTVS_HBOND_DONOR>
2

> <PUBCHEM_CACTVS_ROTATABLE_BOND>
3

> <PUBCHEM_CACTVS_SUBSKEYS>
AAADceBzAAAAAAAAAAAAAAAAAAAAAAAAAAA8QAAAAAAAAAABAAAAHAAQAAAADCjBGAQwAIPAAACAAiBCAACCAAAgAAAIiIAIBIgIYCKAkRGUIABgkACIiAcQgIAOAAAAAAAAAAAAAAAAAAAAAAAAAAAAAA==

> <PUBCHEM_IUPAC_OPENEYE_NAME>
(1S)-1-phenyl-2-piperidin-1-ium-1-yl-ethanamine

> <PUBCHEM_IUPAC_CAS_NAME>
(1S)-1-phenyl-2-(1-piperidin-1-iumyl)ethanamine

> <PUBCHEM_IUPAC_NAME>
(1S)-1-phenyl-2-piperidin-1-ium-1-ylethanamine

> <PUBCHEM_IUPAC_SYSTEMATIC_NAME>
(1S)-1-phenyl-2-piperidin-1-ium-1-yl-ethanamine

> <PUBCHEM_IUPAC_TRADITIONAL_NAME>
[(1S)-1-phenyl-2-piperidin-1-ium-1-yl-ethyl]amine

> <PUBCHEM_IUPAC_INCHI>
InChI=1S/C13H20N2/c14-13(12-7-3-1-4-8-12)11-15-9-5-2-6-10-15/h1,3-4,7-8,13H,2,5-6,9-11,14H2/p+1/t13-/m1/s1

> <PUBCHEM_IUPAC_INCHIKEY>
XNUTYKUKRPEFKX-CYBMUJFWSA-O

> <PUBCHEM_XLOGP3>
1.5

> <PUBCHEM_EXACT_MASS>
205.170474

> <PUBCHEM_MOLECULAR_FORMULA>
C13H21N2+

> <PUBCHEM_MOLECULAR_WEIGHT>
205.31924

> <PUBCHEM_OPENEYE_CAN_SMILES>
C1CC[NH+](CC1)CC(C2=CC=CC=C2)N

> <PUBCHEM_OPENEYE_ISO_SMILES>
C1CC[NH+](CC1)C[C@H](C2=CC=CC=C2)N

> <PUBCHEM_CACTVS_TPSA>
30.5

> <PUBCHEM_MONOISOTOPIC_WEIGHT>
205.170474

> <PUBCHEM_TOTAL_CHARGE>
1

> <PUBCHEM_HEAVY_ATOM_COUNT>
15

> <PUBCHEM_ATOM_DEF_STEREO_COUNT>
1

> <PUBCHEM_ATOM_UDEF_STEREO_COUNT>
0

> <PUBCHEM_BOND_DEF_STEREO_COUNT>
0

> <PUBCHEM_BOND_UDEF_STEREO_COUNT>
0

> <PUBCHEM_ISOTOPIC_ATOM_COUNT>
0

> <PUBCHEM_COMPONENT_COUNT>
1

> <PUBCHEM_CACTVS_TAUTO_COUNT>
1

> <PUBCHEM_COORDINATE_TYPE>
1
5
255

> <PUBCHEM_BONDANNOTATIONS>
10  11  8
10  12  8
11  13  8
12  14  8
13  15  8
14  15  8
9  2  6

$$$$
28383976
  -OEChem-05261314332D

 47 49  0     0  0  0  0  0  0999 V2000
    7.0000   -1.2010    0.0000 N   0  3  0  0  0  0  0  0  0  0  0  0
    7.0000    0.7990    0.0000 N   0  0  0  0  0  0  0  0  0  0  0  0
    6.1340   -0.7010    0.0000 C   0  0  0  0  0  0  0  0  0  0  0  0
    7.8660   -0.7010    0.0000 C   0  0  0  0  0  0  0  0  0  0  0  0
    7.8660    0.2990    0.0000 C   0  0  0  0  0  0  0  0  0  0  0  0
    6.1340    0.2990    0.0000 C   0  0  0  0  0  0  0  0  0  0  0  0
    6.5000   -2.0670    0.0000 C   0  0  0  0  0  0  0  0  0  0  0  0
    7.0000    1.7990    0.0000 C   0  0  0  0  0  0  0  0  0  0  0  0
    5.5000   -2.0670    0.0000 C   0  0  0  0  0  0  0  0  0  0  0  0
    7.8660    2.2990    0.0000 C   0  0  0  0  0  0  0  0  0  0  0  0
    5.0000   -2.9330    0.0000 C   0  0  0  0  0  0  0  0  0  0  0  0
    8.7320    1.7990    0.0000 C   0  0  0  0  0  0  0  0  0  0  0  0
    7.8660    3.2990    0.0000 C   0  0  0  0  0  0  0  0  0  0  0  0
    4.0000   -2.9330    0.0000 C   0  0  0  0  0  0  0  0  0  0  0  0
    9.5981    2.2990    0.0000 C   0  0  0  0  0  0  0  0  0  0  0  0
    8.7320    3.7990    0.0000 C   0  0  0  0  0  0  0  0  0  0  0  0
    9.5981    3.2990    0.0000 C   0  0  0  0  0  0  0  0  0  0  0  0
    3.5000   -2.0670    0.0000 C   0  0  0  0  0  0  0  0  0  0  0  0
    3.5000   -3.7990    0.0000 C   0  0  0  0  0  0  0  0  0  0  0  0
    2.5000   -2.0670    0.0000 C   0  0  0  0  0  0  0  0  0  0  0  0
    2.5000   -3.7990    0.0000 C   0  0  0  0  0  0  0  0  0  0  0  0
    2.0000   -2.9330    0.0000 C   0  0  0  0  0  0  0  0  0  0  0  0
    7.3100   -1.7379    0.0000 H   0  0  0  0  0  0  0  0  0  0  0  0
    8.0781   -1.2836    0.0000 H   0  0  0  0  0  0  0  0  0  0  0  0
    8.4766   -0.5933    0.0000 H   0  0  0  0  0  0  0  0  0  0  0  0
    5.5234   -0.5933    0.0000 H   0  0  0  0  0  0  0  0  0  0  0  0
    5.9219   -1.2836    0.0000 H   0  0  0  0  0  0  0  0  0  0  0  0
    5.9219    0.8816    0.0000 H   0  0  0  0  0  0  0  0  0  0  0  0
    5.5234    0.1914    0.0000 H   0  0  0  0  0  0  0  0  0  0  0  0
    8.4766    0.1914    0.0000 H   0  0  0  0  0  0  0  0  0  0  0  0
    8.0781    0.8816    0.0000 H   0  0  0  0  0  0  0  0  0  0  0  0
    6.3923   -2.6776    0.0000 H   0  0  0  0  0  0  0  0  0  0  0  0
    7.0826   -2.2790    0.0000 H   0  0  0  0  0  0  0  0  0  0  0  0
    6.7880    2.3816    0.0000 H   0  0  0  0  0  0  0  0  0  0  0  0
    6.3894    1.6914    0.0000 H   0  0  0  0  0  0  0  0  0  0  0  0
    5.1900   -1.5300    0.0000 H   0  0  0  0  0  0  0  0  0  0  0  0
    5.3100   -3.4700    0.0000 H   0  0  0  0  0  0  0  0  0  0  0  0
    8.7320    1.1790    0.0000 H   0  0  0  0  0  0  0  0  0  0  0  0
    7.3291    3.6090    0.0000 H   0  0  0  0  0  0  0  0  0  0  0  0
   10.1350    1.9890    0.0000 H   0  0  0  0  0  0  0  0  0  0  0  0
    8.7320    4.4190    0.0000 H   0  0  0  0  0  0  0  0  0  0  0  0
   10.1350    3.6090    0.0000 H   0  0  0  0  0  0  0  0  0  0  0  0
    3.8100   -1.5300    0.0000 H   0  0  0  0  0  0  0  0  0  0  0  0
    3.8100   -4.3360    0.0000 H   0  0  0  0  0  0  0  0  0  0  0  0
    2.1900   -1.5300    0.0000 H   0  0  0  0  0  0  0  0  0  0  0  0
    2.1900   -4.3360    0.0000 H   0  0  0  0  0  0  0  0  0  0  0  0
    1.3800   -2.9330    0.0000 H   0  0  0  0  0  0  0  0  0  0  0  0
  1  3  1  0  0  0  0
  1  4  1  0  0  0  0
  1  7  1  0  0  0  0
  1 23  1  0  0  0  0
  2  5  1  0  0  0  0
  2  6  1  0  0  0  0
  2  8  1  0  0  0  0
  3  6  1  0  0  0  0
  3 26  1  0  0  0  0
  3 27  1  0  0  0  0
  4  5  1  0  0  0  0
  4 24  1  0  0  0  0
  4 25  1  0  0  0  0
  5 30  1  0  0  0  0
  5 31  1  0  0  0  0
  6 28  1  0  0  0  0
  6 29  1  0  0  0  0
  7  9  1  0  0  0  0
  7 32  1  0  0  0  0
  7 33  1  0  0  0  0
  8 10  1  0  0  0  0
  8 34  1  0  0  0  0
  8 35  1  0  0  0  0
  9 11  2  0  0  0  0
  9 36  1  0  0  0  0
 10 12  2  0  0  0  0
 10 13  1  0  0  0  0
 11 14  1  0  0  0  0
 11 37  1  0  0  0  0
 12 15  1  0  0  0  0
 12 38  1  0  0  0  0
 13 16  2  0  0  0  0
 13 39  1  0  0  0  0
 14 18  2  0  0  0  0
 14 19  1  0  0  0  0
 15 17  2  0  0  0  0
 15 40  1  0  0  0  0
 16 17  1  0  0  0  0
 16 41  1  0  0  0  0
 17 42  1  0  0  0  0
 18 20  1  0  0  0  0
 18 43  1  0  0  0  0
 19 21  2  0  0  0  0
 19 44  1  0  0  0  0
 20 22  2  0  0  0  0
 20 45  1  0  0  0  0
 21 22  1  0  0  0  0
 21 46  1  0  0  0  0
 22 47  1  0  0  0  0
M  CHG  1   1   1
M  END
> <PUBCHEM_COMPOUND_CID>
28383976

> <PUBCHEM_COMPOUND_CANONICALIZED>
1

> <PUBCHEM_CACTVS_COMPLEXITY>
319

> <PUBCHEM_CACTVS_HBOND_ACCEPTOR>
1

> <PUBCHEM_CACTVS_HBOND_DONOR>
1

> <PUBCHEM_CACTVS_ROTATABLE_BOND>
5

> <PUBCHEM_CACTVS_SUBSKEYS>
AAADceB7AAAAAAAAAAAAAAAAAAAAAAAAAAA8YIAAAAAAAAABQAAAHAAQAAAADADBGAQwAIPAAACAAiBCAACCAAAgAAAIiIAIBIgIYCKAkRGUIAhgkACIiAcQgAAOAAAAAAAAAAAAAAAAAAAAAAAAAAAAAA==

> <PUBCHEM_IUPAC_OPENEYE_NAME>
1-benzyl-4-[(E)-cinnamyl]piperazin-4-ium

> <PUBCHEM_IUPAC_CAS_NAME>
1-(phenylmethyl)-4-[(E)-3-phenylprop-2-enyl]piperazin-4-ium

> <PUBCHEM_IUPAC_NAME>
1-benzyl-4-[(E)-3-phenylprop-2-enyl]piperazin-4-ium

> <PUBCHEM_IUPAC_SYSTEMATIC_NAME>
1-(phenylmethyl)-4-[(E)-3-phenylprop-2-enyl]piperazin-4-ium

> <PUBCHEM_IUPAC_TRADITIONAL_NAME>
1-benzyl-4-[(E)-cinnamyl]piperazin-4-ium

> <PUBCHEM_IUPAC_INCHI>
InChI=1S/C20H24N2/c1-3-8-19(9-4-1)12-7-13-21-14-16-22(17-15-21)18-20-10-5-2-6-11-20/h1-12H,13-18H2/p+1/b12-7+

> <PUBCHEM_IUPAC_INCHIKEY>
YWXKCOCOLZXNMU-KPKJPENVSA-O

> <PUBCHEM_XLOGP3>
4.1

> <PUBCHEM_EXACT_MASS>
293.201774

> <PUBCHEM_MOLECULAR_FORMULA>
C20H25N2+

> <PUBCHEM_MOLECULAR_WEIGHT>
293.4259

> <PUBCHEM_OPENEYE_CAN_SMILES>
C1CN(CC[NH+]1CC=CC2=CC=CC=C2)CC3=CC=CC=C3

> <PUBCHEM_OPENEYE_ISO_SMILES>
C1CN(CC[NH+]1C/C=C/C2=CC=CC=C2)CC3=CC=CC=C3

> <PUBCHEM_CACTVS_TPSA>
7.7

> <PUBCHEM_MONOISOTOPIC_WEIGHT>
293.201774

> <PUBCHEM_TOTAL_CHARGE>
1

> <PUBCHEM_HEAVY_ATOM_COUNT>
22

> <PUBCHEM_ATOM_DEF_STEREO_COUNT>
0

> <PUBCHEM_ATOM_UDEF_STEREO_COUNT>
0

> <PUBCHEM_BOND_DEF_STEREO_COUNT>
1

> <PUBCHEM_BOND_UDEF_STEREO_COUNT>
0

> <PUBCHEM_ISOTOPIC_ATOM_COUNT>
0

> <PUBCHEM_COMPONENT_COUNT>
1

> <PUBCHEM_CACTVS_TAUTO_COUNT>
1

> <PUBCHEM_COORDINATE_TYPE>
1
5
255

> <PUBCHEM_BONDANNOTATIONS>
10  12  8
10  13  8
12  15  8
13  16  8
14  18  8
14  19  8
15  17  8
16  17  8
18  20  8
19  21  8
20  22  8
21  22  8

$$$$
