63089340
  -OEChem-10231221352D

 25 26  0     0  0  0  0  0  0999 V2000
    4.2690    1.2306    0.0000 N   0  0  0  0  0  0  0  0  0  0  0  0
    2.5369   -1.7694    0.0000 N   0  0  0  0  0  0  0  0  0  0  0  0
    4.2690    0.2306    0.0000 C   0  0  0  0  0  0  0  0  0  0  0  0
    3.4030   -0.2694    0.0000 C   0  0  0  0  0  0  0  0  0  0  0  0
    3.4030   -1.2694    0.0000 C   0  0  0  0  0  0  0  0  0  0  0  0
    5.1350   -0.2694    0.0000 C   0  0  0  0  0  0  0  0  0  0  0  0
    3.4600    1.8184    0.0000 C   0  0  0  0  0  0  0  0  0  0  0  0
    5.0780    1.8184    0.0000 C   0  0  0  0  0  0  0  0  0  0  0  0
    4.2690   -1.7694    0.0000 C   0  0  0  0  0  0  0  0  0  0  0  0
    5.1350   -1.2694    0.0000 C   0  0  0  0  0  0  0  0  0  0  0  0
    4.7690    2.7694    0.0000 C   0  0  0  0  0  0  0  0  0  0  0  0
    3.7690    2.7694    0.0000 C   0  0  0  0  0  0  0  0  0  0  0  0
    2.5369   -2.7694    0.0000 C   0  0  0  0  0  0  0  0  0  0  0  0
    2.8660    0.0406    0.0000 H   0  0  0  0  0  0  0  0  0  0  0  0
    5.6720    0.0406    0.0000 H   0  0  0  0  0  0  0  0  0  0  0  0
    2.8703    1.6268    0.0000 H   0  0  0  0  0  0  0  0  0  0  0  0
    5.6677    1.6268    0.0000 H   0  0  0  0  0  0  0  0  0  0  0  0
    4.2690   -2.3894    0.0000 H   0  0  0  0  0  0  0  0  0  0  0  0
    5.6720   -1.5794    0.0000 H   0  0  0  0  0  0  0  0  0  0  0  0
    3.4046    3.2710    0.0000 H   0  0  0  0  0  0  0  0  0  0  0  0
    5.1334    3.2710    0.0000 H   0  0  0  0  0  0  0  0  0  0  0  0
    2.0000   -1.4594    0.0000 H   0  0  0  0  0  0  0  0  0  0  0  0
    1.9169   -2.7694    0.0000 H   0  0  0  0  0  0  0  0  0  0  0  0
    2.5369   -3.3894    0.0000 H   0  0  0  0  0  0  0  0  0  0  0  0
    3.1569   -2.7694    0.0000 H   0  0  0  0  0  0  0  0  0  0  0  0
  1  3  1  0  0  0  0
  1  7  1  0  0  0  0
  1  8  1  0  0  0  0
  2  5  1  0  0  0  0
  2 13  1  0  0  0  0
  2 22  1  0  0  0  0
  3  4  1  0  0  0  0
  3  6  2  0  0  0  0
  4  5  2  0  0  0  0
  4 14  1  0  0  0  0
  5  9  1  0  0  0  0
  6 10  1  0  0  0  0
  6 15  1  0  0  0  0
  7 12  2  0  0  0  0
  7 16  1  0  0  0  0
  8 11  2  0  0  0  0
  8 17  1  0  0  0  0
  9 10  2  0  0  0  0
  9 18  1  0  0  0  0
 10 19  1  0  0  0  0
 11 12  1  0  0  0  0
 11 21  1  0  0  0  0
 12 20  1  0  0  0  0
 13 23  1  0  0  0  0
 13 24  1  0  0  0  0
 13 25  1  0  0  0  0
M  END
> <PUBCHEM_COMPOUND_CID>
63089340

> <PUBCHEM_COMPOUND_CANONICALIZED>
1

> <PUBCHEM_CACTVS_COMPLEXITY>
152

> <PUBCHEM_CACTVS_HBOND_ACCEPTOR>
1

> <PUBCHEM_CACTVS_HBOND_DONOR>
1

> <PUBCHEM_CACTVS_ROTATABLE_BOND>
2

> <PUBCHEM_CACTVS_SUBSKEYS>
AAADccBzAAAAAAAAAAAAAAAAAAAAAWAAAAAwAAAAAAAAAAABwAAAHAAQAAAACAjBEgQ+wJPMEACgADRnRACCgCAxAiAI2KA4ZJgIIOLA0dGEIAhgkADIyAcQAAAAAAAAAAQAAAAAAAAACAAAAAAAAAAAAA==

> <PUBCHEM_IUPAC_OPENEYE_NAME>
N-methyl-3-pyrrol-1-yl-aniline

> <PUBCHEM_IUPAC_CAS_NAME>
N-methyl-3-(1-pyrrolyl)aniline

> <PUBCHEM_IUPAC_NAME>
N-methyl-3-pyrrol-1-ylaniline

> <PUBCHEM_IUPAC_SYSTEMATIC_NAME>
N-methyl-3-pyrrol-1-yl-aniline

> <PUBCHEM_IUPAC_TRADITIONAL_NAME>
methyl-(3-pyrrol-1-ylphenyl)amine

> <PUBCHEM_IUPAC_INCHI>
InChI=1S/C11H12N2/c1-12-10-5-4-6-11(9-10)13-7-2-3-8-13/h2-9,12H,1H3

> <PUBCHEM_IUPAC_INCHIKEY>
CZDULQBOEZOTEP-UHFFFAOYSA-N

> <PUBCHEM_XLOGP3>
3.1

> <PUBCHEM_EXACT_MASS>
172.100048

> <PUBCHEM_MOLECULAR_FORMULA>
C11H12N2

> <PUBCHEM_MOLECULAR_WEIGHT>
172.22638

> <PUBCHEM_OPENEYE_CAN_SMILES>
CNC1=CC=CC(=C1)N2C=CC=C2

> <PUBCHEM_OPENEYE_ISO_SMILES>
CNC1=CC=CC(=C1)N2C=CC=C2

> <PUBCHEM_CACTVS_TPSA>
17

> <PUBCHEM_MONOISOTOPIC_WEIGHT>
172.100048

> <PUBCHEM_TOTAL_CHARGE>
0

> <PUBCHEM_HEAVY_ATOM_COUNT>
13

> <PUBCHEM_ATOM_DEF_STEREO_COUNT>
0

> <PUBCHEM_ATOM_UDEF_STEREO_COUNT>
0

> <PUBCHEM_BOND_DEF_STEREO_COUNT>
0

> <PUBCHEM_BOND_UDEF_STEREO_COUNT>
0

> <PUBCHEM_ISOTOPIC_ATOM_COUNT>
0

> <PUBCHEM_COMPONENT_COUNT>
1

> <PUBCHEM_CACTVS_TAUTO_COUNT>
1

> <PUBCHEM_COORDINATE_TYPE>
1
5
255

> <PUBCHEM_BONDANNOTATIONS>
1  7  8
1  8  8
11  12  8
3  4  8
3  6  8
4  5  8
5  9  8
6  10  8
7  12  8
8  11  8
9  10  8

$$$$
