47764307
  -OEChem-12041212122D

 32 33  0     1  0  0  0  0  0999 V2000
    4.5981    1.6830    0.0000 O   0  0  0  0  0  0  0  0  0  0  0  0
    3.7320    0.1830    0.0000 N   0  0  0  0  0  0  0  0  0  0  0  0
    2.8660    1.6830    0.0000 N   0  0  0  0  0  0  0  0  0  0  0  0
    5.0981   -1.1830    0.0000 C   0  0  3  0  0  0  0  0  0  0  0  0
    4.5981   -0.3170    0.0000 C   0  0  3  0  0  0  0  0  0  0  0  0
    5.5981   -0.3170    0.0000 C   0  0  0  0  0  0  0  0  0  0  0  0
    5.0981   -2.1830    0.0000 C   0  0  0  0  0  0  0  0  0  0  0  0
    4.2320   -2.6830    0.0000 C   0  0  0  0  0  0  0  0  0  0  0  0
    5.9641   -2.6830    0.0000 C   0  0  0  0  0  0  0  0  0  0  0  0
    3.7320    1.1830    0.0000 C   0  0  0  0  0  0  0  0  0  0  0  0
    4.2320   -3.6830    0.0000 C   0  0  0  0  0  0  0  0  0  0  0  0
    5.9641   -3.6830    0.0000 C   0  0  0  0  0  0  0  0  0  0  0  0
    5.0981   -4.1830    0.0000 C   0  0  0  0  0  0  0  0  0  0  0  0
    2.8660    2.6830    0.0000 C   0  0  0  0  0  0  0  0  0  0  0  0
    2.0000    3.1830    0.0000 C   0  0  0  0  0  0  0  0  0  0  0  0
    2.0000    4.1830    0.0000 C   0  0  0  0  0  0  0  0  0  0  0  0
    5.6970   -1.3435    0.0000 H   0  0  0  0  0  0  0  0  0  0  0  0
    4.7585    0.2819    0.0000 H   0  0  0  0  0  0  0  0  0  0  0  0
    6.1807   -0.5290    0.0000 H   0  0  0  0  0  0  0  0  0  0  0  0
    5.7057    0.2936    0.0000 H   0  0  0  0  0  0  0  0  0  0  0  0
    3.1951   -0.1270    0.0000 H   0  0  0  0  0  0  0  0  0  0  0  0
    3.6951   -2.3730    0.0000 H   0  0  0  0  0  0  0  0  0  0  0  0
    6.5010   -2.3730    0.0000 H   0  0  0  0  0  0  0  0  0  0  0  0
    3.6951   -3.9930    0.0000 H   0  0  0  0  0  0  0  0  0  0  0  0
    6.5010   -3.9930    0.0000 H   0  0  0  0  0  0  0  0  0  0  0  0
    2.3291    1.3730    0.0000 H   0  0  0  0  0  0  0  0  0  0  0  0
    5.0981   -4.8030    0.0000 H   0  0  0  0  0  0  0  0  0  0  0  0
    3.4766    2.5753    0.0000 H   0  0  0  0  0  0  0  0  0  0  0  0
    3.0781    3.2656    0.0000 H   0  0  0  0  0  0  0  0  0  0  0  0
    1.4631    2.8730    0.0000 H   0  0  0  0  0  0  0  0  0  0  0  0
    2.5369    4.4930    0.0000 H   0  0  0  0  0  0  0  0  0  0  0  0
    1.4631    4.4930    0.0000 H   0  0  0  0  0  0  0  0  0  0  0  0
  1 10  2  0  0  0  0
  2  5  1  0  0  0  0
  2 10  1  0  0  0  0
  2 21  1  0  0  0  0
  3 10  1  0  0  0  0
  3 14  1  0  0  0  0
  3 26  1  0  0  0  0
  4  5  1  0  0  0  0
  4  6  1  0  0  0  0
  4  7  1  0  0  0  0
  4 17  1  0  0  0  0
  5  6  1  0  0  0  0
  5 18  1  0  0  0  0
  6 19  1  0  0  0  0
  6 20  1  0  0  0  0
  7  8  2  0  0  0  0
  7  9  1  0  0  0  0
  8 11  1  0  0  0  0
  8 22  1  0  0  0  0
  9 12  2  0  0  0  0
  9 23  1  0  0  0  0
 11 13  2  0  0  0  0
 11 24  1  0  0  0  0
 12 13  1  0  0  0  0
 12 25  1  0  0  0  0
 13 27  1  0  0  0  0
 14 15  1  0  0  0  0
 14 28  1  0  0  0  0
 14 29  1  0  0  0  0
 15 16  2  0  0  0  0
 15 30  1  0  0  0  0
 16 31  1  0  0  0  0
 16 32  1  0  0  0  0
M  END
> <PUBCHEM_COMPOUND_CID>
47764307

> <PUBCHEM_COMPOUND_CANONICALIZED>
1

> <PUBCHEM_CACTVS_COMPLEXITY>
259

> <PUBCHEM_CACTVS_HBOND_ACCEPTOR>
1

> <PUBCHEM_CACTVS_HBOND_DONOR>
2

> <PUBCHEM_CACTVS_ROTATABLE_BOND>
4

> <PUBCHEM_CACTVS_SUBSKEYS>
AAADceBzIAAAAAAAAAAAAAAAGAAAAAAAAAAwAAAAAAAAAAABAAAAHgAQAAAADSjBGAQxAILAAACIAiBCEACCAAAgAAAIiIAIAIiIICKAkRGEIAAolgIIiAcQgMAOgAAAAAAAAAAAAAAAAAAAAAAAAAAAAA==

> <PUBCHEM_IUPAC_OPENEYE_NAME>
1-allyl-3-(2-phenylcyclopropyl)urea

> <PUBCHEM_IUPAC_CAS_NAME>
1-(2-phenylcyclopropyl)-3-prop-2-enylurea

> <PUBCHEM_IUPAC_NAME>
1-(2-phenylcyclopropyl)-3-prop-2-enylurea

> <PUBCHEM_IUPAC_SYSTEMATIC_NAME>
1-(2-phenylcyclopropyl)-3-prop-2-enyl-urea

> <PUBCHEM_IUPAC_TRADITIONAL_NAME>
1-allyl-3-(2-phenylcyclopropyl)urea

> <PUBCHEM_IUPAC_INCHI>
InChI=1S/C13H16N2O/c1-2-8-14-13(16)15-12-9-11(12)10-6-4-3-5-7-10/h2-7,11-12H,1,8-9H2,(H2,14,15,16)

> <PUBCHEM_IUPAC_INCHIKEY>
PRYFSXSDBTZAFA-UHFFFAOYSA-N

> <PUBCHEM_XLOGP3>
1.9

> <PUBCHEM_EXACT_MASS>
216.126263

> <PUBCHEM_MOLECULAR_FORMULA>
C13H16N2O

> <PUBCHEM_MOLECULAR_WEIGHT>
216.27894

> <PUBCHEM_OPENEYE_CAN_SMILES>
C=CCNC(=O)NC1CC1C2=CC=CC=C2

> <PUBCHEM_OPENEYE_ISO_SMILES>
C=CCNC(=O)NC1CC1C2=CC=CC=C2

> <PUBCHEM_CACTVS_TPSA>
41.1

> <PUBCHEM_MONOISOTOPIC_WEIGHT>
216.126263

> <PUBCHEM_TOTAL_CHARGE>
0

> <PUBCHEM_HEAVY_ATOM_COUNT>
16

> <PUBCHEM_ATOM_DEF_STEREO_COUNT>
0

> <PUBCHEM_ATOM_UDEF_STEREO_COUNT>
2

> <PUBCHEM_BOND_DEF_STEREO_COUNT>
0

> <PUBCHEM_BOND_UDEF_STEREO_COUNT>
0

> <PUBCHEM_ISOTOPIC_ATOM_COUNT>
0

> <PUBCHEM_COMPONENT_COUNT>
1

> <PUBCHEM_CACTVS_TAUTO_COUNT>
3

> <PUBCHEM_COORDINATE_TYPE>
1
5
255

> <PUBCHEM_BONDANNOTATIONS>
11  13  8
12  13  8
5  2  3
4  7  3
7  8  8
7  9  8
8  11  8
9  12  8

$$$$
47764315
  -OEChem-12041212122D

 44 46  0     1  0  0  0  0  0999 V2000
    4.5981    0.1830    0.0000 O   0  0  0  0  0  0  0  0  0  0  0  0
    2.8660    0.1830    0.0000 N   0  0  0  0  0  0  0  0  0  0  0  0
    3.7320    1.6830    0.0000 N   0  0  0  0  0  0  0  0  0  0  0  0
    2.8660   -0.8170    0.0000 C   0  0  3  0  0  0  0  0  0  0  0  0
    3.3660   -1.6830    0.0000 C   0  0  3  0  0  0  0  0  0  0  0  0
    2.3660   -1.6830    0.0000 C   0  0  0  0  0  0  0  0  0  0  0  0
    4.2320   -2.1830    0.0000 C   0  0  0  0  0  0  0  0  0  0  0  0
    2.8660    3.1830    0.0000 C   0  0  3  0  0  0  0  0  0  0  0  0
    4.5981    3.1830    0.0000 C   0  0  3  0  0  0  0  0  0  0  0  0
    3.7320    3.6830    0.0000 C   0  0  0  0  0  0  0  0  0  0  0  0
    2.8660    2.1830    0.0000 C   0  0  0  0  0  0  0  0  0  0  0  0
    4.5981    2.1830    0.0000 C   0  0  0  0  0  0  0  0  0  0  0  0
    3.7320    0.6830    0.0000 C   0  0  0  0  0  0  0  0  0  0  0  0
    5.4641    3.6830    0.0000 C   0  0  0  0  0  0  0  0  0  0  0  0
    2.0000    3.6830    0.0000 C   0  0  0  0  0  0  0  0  0  0  0  0
    4.2320   -3.1830    0.0000 C   0  0  0  0  0  0  0  0  0  0  0  0
    5.0981   -1.6830    0.0000 C   0  0  0  0  0  0  0  0  0  0  0  0
    5.0981   -3.6830    0.0000 C   0  0  0  0  0  0  0  0  0  0  0  0
    5.9641   -2.1830    0.0000 C   0  0  0  0  0  0  0  0  0  0  0  0
    5.9641   -3.1830    0.0000 C   0  0  0  0  0  0  0  0  0  0  0  0
    3.4649   -0.6565    0.0000 H   0  0  0  0  0  0  0  0  0  0  0  0
    3.2056   -2.2819    0.0000 H   0  0  0  0  0  0  0  0  0  0  0  0
    1.7834   -1.4710    0.0000 H   0  0  0  0  0  0  0  0  0  0  0  0
    2.2584   -2.2936    0.0000 H   0  0  0  0  0  0  0  0  0  0  0  0
    2.3291    0.4930    0.0000 H   0  0  0  0  0  0  0  0  0  0  0  0
    2.8660    3.8030    0.0000 H   0  0  0  0  0  0  0  0  0  0  0  0
    4.5981    3.8030    0.0000 H   0  0  0  0  0  0  0  0  0  0  0  0
    4.1306    4.1580    0.0000 H   0  0  0  0  0  0  0  0  0  0  0  0
    3.3335    4.1580    0.0000 H   0  0  0  0  0  0  0  0  0  0  0  0
    2.2554    2.2907    0.0000 H   0  0  0  0  0  0  0  0  0  0  0  0
    2.6540    1.6004    0.0000 H   0  0  0  0  0  0  0  0  0  0  0  0
    4.8101    1.6004    0.0000 H   0  0  0  0  0  0  0  0  0  0  0  0
    5.2087    2.2907    0.0000 H   0  0  0  0  0  0  0  0  0  0  0  0
    5.7741    3.1461    0.0000 H   0  0  0  0  0  0  0  0  0  0  0  0
    2.3100    4.2200    0.0000 H   0  0  0  0  0  0  0  0  0  0  0  0
    1.4631    3.9930    0.0000 H   0  0  0  0  0  0  0  0  0  0  0  0
    6.0010    3.9930    0.0000 H   0  0  0  0  0  0  0  0  0  0  0  0
    1.6900    3.1461    0.0000 H   0  0  0  0  0  0  0  0  0  0  0  0
    5.1541    4.2200    0.0000 H   0  0  0  0  0  0  0  0  0  0  0  0
    3.6951   -3.4930    0.0000 H   0  0  0  0  0  0  0  0  0  0  0  0
    5.0981   -1.0630    0.0000 H   0  0  0  0  0  0  0  0  0  0  0  0
    5.0981   -4.3030    0.0000 H   0  0  0  0  0  0  0  0  0  0  0  0
    6.5010   -1.8730    0.0000 H   0  0  0  0  0  0  0  0  0  0  0  0
    6.5010   -3.4930    0.0000 H   0  0  0  0  0  0  0  0  0  0  0  0
  1 13  2  0  0  0  0
  2  4  1  0  0  0  0
  2 13  1  0  0  0  0
  2 25  1  0  0  0  0
  3 11  1  0  0  0  0
  3 12  1  0  0  0  0
  3 13  1  0  0  0  0
  4  5  1  0  0  0  0
  4  6  1  0  0  0  0
  4 21  1  0  0  0  0
  5  6  1  0  0  0  0
  5  7  1  0  0  0  0
  5 22  1  0  0  0  0
  6 23  1  0  0  0  0
  6 24  1  0  0  0  0
  7 16  2  0  0  0  0
  7 17  1  0  0  0  0
  8 10  1  0  0  0  0
  8 11  1  0  0  0  0
  8 15  1  0  0  0  0
  8 26  1  0  0  0  0
  9 10  1  0  0  0  0
  9 12  1  0  0  0  0
  9 14  1  0  0  0  0
  9 27  1  0  0  0  0
 10 28  1  0  0  0  0
 10 29  1  0  0  0  0
 11 30  1  0  0  0  0
 11 31  1  0  0  0  0
 12 32  1  0  0  0  0
 12 33  1  0  0  0  0
 14 34  1  0  0  0  0
 14 37  1  0  0  0  0
 14 39  1  0  0  0  0
 15 35  1  0  0  0  0
 15 36  1  0  0  0  0
 15 38  1  0  0  0  0
 16 18  1  0  0  0  0
 16 40  1  0  0  0  0
 17 19  2  0  0  0  0
 17 41  1  0  0  0  0
 18 20  2  0  0  0  0
 18 42  1  0  0  0  0
 19 20  1  0  0  0  0
 19 43  1  0  0  0  0
 20 44  1  0  0  0  0
M  END
> <PUBCHEM_COMPOUND_CID>
47764315

> <PUBCHEM_COMPOUND_CANONICALIZED>
1

> <PUBCHEM_CACTVS_COMPLEXITY>
341

> <PUBCHEM_CACTVS_HBOND_ACCEPTOR>
1

> <PUBCHEM_CACTVS_HBOND_DONOR>
1

> <PUBCHEM_CACTVS_ROTATABLE_BOND>
2

> <PUBCHEM_CACTVS_SUBSKEYS>
AAADceB7IAAAAAAAAAAAAAAAGAAAAAAAAAA8QAAAAAAAAAABAAAAHgAQAAAADSjBGAQzAIPAAACIAiBCEAACAAAgAAAIiIAIAIiIICKAkRGEIAAolgKIiAcQgMAOgAAAAAAAAAAAAAAAAAAAAAAAAAAAAA==

> <PUBCHEM_IUPAC_OPENEYE_NAME>
3,5-dimethyl-N-(2-phenylcyclopropyl)piperidine-1-carboxamide

> <PUBCHEM_IUPAC_CAS_NAME>
3,5-dimethyl-N-(2-phenylcyclopropyl)-1-piperidinecarboxamide

> <PUBCHEM_IUPAC_NAME>
3,5-dimethyl-N-(2-phenylcyclopropyl)piperidine-1-carboxamide

> <PUBCHEM_IUPAC_SYSTEMATIC_NAME>
3,5-dimethyl-N-(2-phenylcyclopropyl)piperidine-1-carboxamide

> <PUBCHEM_IUPAC_TRADITIONAL_NAME>
3,5-dimethyl-N-(2-phenylcyclopropyl)piperidine-1-carboxamide

> <PUBCHEM_IUPAC_INCHI>
InChI=1S/C17H24N2O/c1-12-8-13(2)11-19(10-12)17(20)18-16-9-15(16)14-6-4-3-5-7-14/h3-7,12-13,15-16H,8-11H2,1-2H3,(H,18,20)

> <PUBCHEM_IUPAC_INCHIKEY>
DEQQIKHSQLKVSY-UHFFFAOYSA-N

> <PUBCHEM_XLOGP3>
3.2

> <PUBCHEM_EXACT_MASS>
272.188863

> <PUBCHEM_MOLECULAR_FORMULA>
C17H24N2O

> <PUBCHEM_MOLECULAR_WEIGHT>
272.38526

> <PUBCHEM_OPENEYE_CAN_SMILES>
CC1CC(CN(C1)C(=O)NC2CC2C3=CC=CC=C3)C

> <PUBCHEM_OPENEYE_ISO_SMILES>
CC1CC(CN(C1)C(=O)NC2CC2C3=CC=CC=C3)C

> <PUBCHEM_CACTVS_TPSA>
32.3

> <PUBCHEM_MONOISOTOPIC_WEIGHT>
272.188863

> <PUBCHEM_TOTAL_CHARGE>
0

> <PUBCHEM_HEAVY_ATOM_COUNT>
20

> <PUBCHEM_ATOM_DEF_STEREO_COUNT>
0

> <PUBCHEM_ATOM_UDEF_STEREO_COUNT>
4

> <PUBCHEM_BOND_DEF_STEREO_COUNT>
0

> <PUBCHEM_BOND_UDEF_STEREO_COUNT>
0

> <PUBCHEM_ISOTOPIC_ATOM_COUNT>
0

> <PUBCHEM_COMPONENT_COUNT>
1

> <PUBCHEM_CACTVS_TAUTO_COUNT>
2

> <PUBCHEM_COORDINATE_TYPE>
1
5
255

> <PUBCHEM_BONDANNOTATIONS>
16  18  8
17  19  8
18  20  8
19  20  8
4  2  3
5  7  3
7  16  8
7  17  8
8  15  3
9  14  3

$$$$
