4905889
  -OEChem-11301216562D

 25 27  0     0  0  0  0  0  0999 V2000
    9.2619   -0.1970    0.0000 I   0  0  0  0  0  0  0  0  0  0  0  0
    4.6783    0.6077    0.0000 N   0  0  0  0  0  0  0  0  0  0  0  0
    4.6783   -1.0018    0.0000 N   0  0  0  0  0  0  0  0  0  0  0  0
    3.7320    0.3030    0.0000 C   0  0  0  0  0  0  0  0  0  0  0  0
    5.2619   -0.1970    0.0000 C   0  0  0  0  0  0  0  0  0  0  0  0
    3.7320   -0.6970    0.0000 C   0  0  0  0  0  0  0  0  0  0  0  0
    6.2619   -0.1970    0.0000 C   0  0  0  0  0  0  0  0  0  0  0  0
    2.8660    0.8030    0.0000 C   0  0  0  0  0  0  0  0  0  0  0  0
    2.8660   -1.1970    0.0000 C   0  0  0  0  0  0  0  0  0  0  0  0
    6.7619   -1.0630    0.0000 C   0  0  0  0  0  0  0  0  0  0  0  0
    6.7619    0.6690    0.0000 C   0  0  0  0  0  0  0  0  0  0  0  0
    2.0000    0.3030    0.0000 C   0  0  0  0  0  0  0  0  0  0  0  0
    2.0000   -0.6970    0.0000 C   0  0  0  0  0  0  0  0  0  0  0  0
    7.7619   -1.0630    0.0000 C   0  0  0  0  0  0  0  0  0  0  0  0
    7.7619    0.6690    0.0000 C   0  0  0  0  0  0  0  0  0  0  0  0
    8.2619   -0.1970    0.0000 C   0  0  0  0  0  0  0  0  0  0  0  0
    4.8709    1.1970    0.0000 H   0  0  0  0  0  0  0  0  0  0  0  0
    2.8660    1.4230    0.0000 H   0  0  0  0  0  0  0  0  0  0  0  0
    2.8660   -1.8170    0.0000 H   0  0  0  0  0  0  0  0  0  0  0  0
    6.4519   -1.6000    0.0000 H   0  0  0  0  0  0  0  0  0  0  0  0
    6.4519    1.2059    0.0000 H   0  0  0  0  0  0  0  0  0  0  0  0
    1.4631    0.6130    0.0000 H   0  0  0  0  0  0  0  0  0  0  0  0
    1.4631   -1.0070    0.0000 H   0  0  0  0  0  0  0  0  0  0  0  0
    8.0719   -1.6000    0.0000 H   0  0  0  0  0  0  0  0  0  0  0  0
    8.0719    1.2059    0.0000 H   0  0  0  0  0  0  0  0  0  0  0  0
  1 16  1  0  0  0  0
  2  4  1  0  0  0  0
  2  5  1  0  0  0  0
  2 17  1  0  0  0  0
  3  5  2  0  0  0  0
  3  6  1  0  0  0  0
  4  6  1  0  0  0  0
  4  8  2  0  0  0  0
  5  7  1  0  0  0  0
  6  9  2  0  0  0  0
  7 10  2  0  0  0  0
  7 11  1  0  0  0  0
  8 12  1  0  0  0  0
  8 18  1  0  0  0  0
  9 13  1  0  0  0  0
  9 19  1  0  0  0  0
 10 14  1  0  0  0  0
 10 20  1  0  0  0  0
 11 15  2  0  0  0  0
 11 21  1  0  0  0  0
 12 13  2  0  0  0  0
 12 22  1  0  0  0  0
 13 23  1  0  0  0  0
 14 16  2  0  0  0  0
 14 24  1  0  0  0  0
 15 16  1  0  0  0  0
 15 25  1  0  0  0  0
M  END
> <PUBCHEM_COMPOUND_CID>
4905889

> <PUBCHEM_COMPOUND_CANONICALIZED>
1

> <PUBCHEM_CACTVS_COMPLEXITY>
238

> <PUBCHEM_CACTVS_HBOND_ACCEPTOR>
1

> <PUBCHEM_CACTVS_HBOND_DONOR>
1

> <PUBCHEM_CACTVS_ROTATABLE_BOND>
1

> <PUBCHEM_CACTVS_SUBSKEYS>
AAADccBzAAAAAgAAAAAAAAAAAAAAAWAAAAAwYAAAAAAAAFgB9AAAHAAwAAAADAiDHwAx0LbJkACgAyZiZACCgC2hEqAJmSAwdJiIaKLAmZGUIAhokALIyCcQgAAOAAAAAAAAACAAAAAAAAAAQAAAAAAAAA==

> <PUBCHEM_IUPAC_OPENEYE_NAME>
2-(4-iodophenyl)-1H-benzimidazole

> <PUBCHEM_IUPAC_CAS_NAME>
2-(4-iodophenyl)-1H-benzimidazole

> <PUBCHEM_IUPAC_NAME>
2-(4-iodophenyl)-1H-benzimidazole

> <PUBCHEM_IUPAC_SYSTEMATIC_NAME>
2-(4-iodophenyl)-1H-benzimidazole

> <PUBCHEM_IUPAC_TRADITIONAL_NAME>
2-(4-iodophenyl)-1H-benzimidazole

> <PUBCHEM_IUPAC_INCHI>
InChI=1S/C13H9IN2/c14-10-7-5-9(6-8-10)13-15-11-3-1-2-4-12(11)16-13/h1-8H,(H,15,16)

> <PUBCHEM_IUPAC_INCHIKEY>
WUYIWNAPTKDVCK-UHFFFAOYSA-N

> <PUBCHEM_XLOGP3>
3.9

> <PUBCHEM_EXACT_MASS>
319.981046

> <PUBCHEM_MOLECULAR_FORMULA>
C13H9IN2

> <PUBCHEM_MOLECULAR_WEIGHT>
320.12843

> <PUBCHEM_OPENEYE_CAN_SMILES>
C1=CC=C2C(=C1)NC(=N2)C3=CC=C(C=C3)I

> <PUBCHEM_OPENEYE_ISO_SMILES>
C1=CC=C2C(=C1)NC(=N2)C3=CC=C(C=C3)I

> <PUBCHEM_CACTVS_TPSA>
28.7

> <PUBCHEM_MONOISOTOPIC_WEIGHT>
319.981046

> <PUBCHEM_TOTAL_CHARGE>
0

> <PUBCHEM_HEAVY_ATOM_COUNT>
16

> <PUBCHEM_ATOM_DEF_STEREO_COUNT>
0

> <PUBCHEM_ATOM_UDEF_STEREO_COUNT>
0

> <PUBCHEM_BOND_DEF_STEREO_COUNT>
0

> <PUBCHEM_BOND_UDEF_STEREO_COUNT>
0

> <PUBCHEM_ISOTOPIC_ATOM_COUNT>
0

> <PUBCHEM_COMPONENT_COUNT>
1

> <PUBCHEM_CACTVS_TAUTO_COUNT>
1

> <PUBCHEM_COORDINATE_TYPE>
1
5
255

> <PUBCHEM_BONDANNOTATIONS>
10  14  8
11  15  8
12  13  8
14  16  8
15  16  8
2  4  8
2  5  8
3  5  8
3  6  8
4  6  8
4  8  8
6  9  8
7  10  8
7  11  8
8  12  8
9  13  8

$$$$
4912701
  -OEChem-11301216572D

 32 34  0     0  0  0  0  0  0999 V2000
    7.1962    2.2500    0.0000 O   0  0  0  0  0  0  0  0  0  0  0  0
    7.1962   -0.7500    0.0000 N   0  0  0  0  0  0  0  0  0  0  0  0
    5.4641   -0.7500    0.0000 N   0  0  0  0  0  0  0  0  0  0  0  0
    6.3301    0.7500    0.0000 N   0  0  0  0  0  0  0  0  0  0  0  0
    8.0622   -0.2500    0.0000 C   0  0  0  0  0  0  0  0  0  0  0  0
    4.5981   -0.2500    0.0000 C   0  0  0  0  0  0  0  0  0  0  0  0
    8.0622    0.7500    0.0000 C   0  0  0  0  0  0  0  0  0  0  0  0
    6.3301   -0.2500    0.0000 C   0  0  0  0  0  0  0  0  0  0  0  0
    3.7320   -0.7500    0.0000 C   0  0  0  0  0  0  0  0  0  0  0  0
    8.9561   -0.7847    0.0000 C   0  0  0  0  0  0  0  0  0  0  0  0
    7.1962    1.2500    0.0000 C   0  0  0  0  0  0  0  0  0  0  0  0
    8.9561    1.2847    0.0000 C   0  0  0  0  0  0  0  0  0  0  0  0
    2.8660   -0.2500    0.0000 C   0  0  0  0  0  0  0  0  0  0  0  0
    3.7320   -1.7500    0.0000 C   0  0  0  0  0  0  0  0  0  0  0  0
    9.8622   -0.2708    0.0000 C   0  0  0  0  0  0  0  0  0  0  0  0
    9.8622    0.7708    0.0000 C   0  0  0  0  0  0  0  0  0  0  0  0
    2.0000   -0.7500    0.0000 C   0  0  0  0  0  0  0  0  0  0  0  0
    2.8660   -2.2500    0.0000 C   0  0  0  0  0  0  0  0  0  0  0  0
    2.0000   -1.7500    0.0000 C   0  0  0  0  0  0  0  0  0  0  0  0
    4.9966    0.2249    0.0000 H   0  0  0  0  0  0  0  0  0  0  0  0
    4.1996    0.2249    0.0000 H   0  0  0  0  0  0  0  0  0  0  0  0
    7.1962   -1.3700    0.0000 H   0  0  0  0  0  0  0  0  0  0  0  0
    5.4641   -1.3700    0.0000 H   0  0  0  0  0  0  0  0  0  0  0  0
    8.9490   -1.4046    0.0000 H   0  0  0  0  0  0  0  0  0  0  0  0
    8.9490    1.9046    0.0000 H   0  0  0  0  0  0  0  0  0  0  0  0
    2.8660    0.3700    0.0000 H   0  0  0  0  0  0  0  0  0  0  0  0
    4.2690   -2.0600    0.0000 H   0  0  0  0  0  0  0  0  0  0  0  0
   10.3979   -0.5829    0.0000 H   0  0  0  0  0  0  0  0  0  0  0  0
   10.3979    1.0829    0.0000 H   0  0  0  0  0  0  0  0  0  0  0  0
    1.4631   -0.4400    0.0000 H   0  0  0  0  0  0  0  0  0  0  0  0
    2.8660   -2.8700    0.0000 H   0  0  0  0  0  0  0  0  0  0  0  0
    1.4631   -2.0600    0.0000 H   0  0  0  0  0  0  0  0  0  0  0  0
  1 11  2  0  0  0  0
  2  5  1  0  0  0  0
  2  8  1  0  0  0  0
  2 22  1  0  0  0  0
  3  6  1  0  0  0  0
  3  8  1  0  0  0  0
  3 23  1  0  0  0  0
  4  8  2  0  0  0  0
  4 11  1  0  0  0  0
  5  7  1  0  0  0  0
  5 10  2  0  0  0  0
  6  9  1  0  0  0  0
  6 20  1  0  0  0  0
  6 21  1  0  0  0  0
  7 11  1  0  0  0  0
  7 12  2  0  0  0  0
  9 13  2  0  0  0  0
  9 14  1  0  0  0  0
 10 15  1  0  0  0  0
 10 24  1  0  0  0  0
 12 16  1  0  0  0  0
 12 25  1  0  0  0  0
 13 17  1  0  0  0  0
 13 26  1  0  0  0  0
 14 18  2  0  0  0  0
 14 27  1  0  0  0  0
 15 16  2  0  0  0  0
 15 28  1  0  0  0  0
 16 29  1  0  0  0  0
 17 19  2  0  0  0  0
 17 30  1  0  0  0  0
 18 19  1  0  0  0  0
 18 31  1  0  0  0  0
 19 32  1  0  0  0  0
M  END
> <PUBCHEM_COMPOUND_CID>
4912701

> <PUBCHEM_COMPOUND_CANONICALIZED>
1

> <PUBCHEM_CACTVS_COMPLEXITY>
360

> <PUBCHEM_CACTVS_HBOND_ACCEPTOR>
1

> <PUBCHEM_CACTVS_HBOND_DONOR>
2

> <PUBCHEM_CACTVS_ROTATABLE_BOND>
3

> <PUBCHEM_CACTVS_SUBSKEYS>
AAADccBzIAAAAAAAAAAAAAAAAAAAAAAAAAAwYIAAAAAAAACBQAAAHgAQAAAADAjBmAQxwILAAACoAiVSdACCAAElAgAJiIEIZMiIIDrA3ZGEIYhokAJIyecYiACOAAAAAAACAAAAAAAAAAQAAAAAAAAAAA==

> <PUBCHEM_IUPAC_OPENEYE_NAME>
2-(benzylamino)-1H-quinazolin-4-one

> <PUBCHEM_IUPAC_CAS_NAME>
2-[(phenylmethyl)amino]-1H-quinazolin-4-one

> <PUBCHEM_IUPAC_NAME>
2-(benzylamino)-1H-quinazolin-4-one

> <PUBCHEM_IUPAC_SYSTEMATIC_NAME>
2-[(phenylmethyl)amino]-1H-quinazolin-4-one

> <PUBCHEM_IUPAC_TRADITIONAL_NAME>
2-(benzylamino)-1H-quinazolin-4-one

> <PUBCHEM_IUPAC_INCHI>
InChI=1S/C15H13N3O/c19-14-12-8-4-5-9-13(12)17-15(18-14)16-10-11-6-2-1-3-7-11/h1-9H,10H2,(H2,16,17,18,19)

> <PUBCHEM_IUPAC_INCHIKEY>
NXHQQLKIHNRLPU-UHFFFAOYSA-N

> <PUBCHEM_XLOGP3>
2.5

> <PUBCHEM_EXACT_MASS>
251.105862

> <PUBCHEM_MOLECULAR_FORMULA>
C15H13N3O

> <PUBCHEM_MOLECULAR_WEIGHT>
251.28322

> <PUBCHEM_OPENEYE_CAN_SMILES>
C1=CC=C(C=C1)CNC2=NC(=O)C3=CC=CC=C3N2

> <PUBCHEM_OPENEYE_ISO_SMILES>
C1=CC=C(C=C1)CNC2=NC(=O)C3=CC=CC=C3N2

> <PUBCHEM_CACTVS_TPSA>
53.5

> <PUBCHEM_MONOISOTOPIC_WEIGHT>
251.105862

> <PUBCHEM_TOTAL_CHARGE>
0

> <PUBCHEM_HEAVY_ATOM_COUNT>
19

> <PUBCHEM_ATOM_DEF_STEREO_COUNT>
0

> <PUBCHEM_ATOM_UDEF_STEREO_COUNT>
0

> <PUBCHEM_BOND_DEF_STEREO_COUNT>
0

> <PUBCHEM_BOND_UDEF_STEREO_COUNT>
0

> <PUBCHEM_ISOTOPIC_ATOM_COUNT>
0

> <PUBCHEM_COMPONENT_COUNT>
1

> <PUBCHEM_CACTVS_TAUTO_COUNT>
12

> <PUBCHEM_COORDINATE_TYPE>
1
5
255

> <PUBCHEM_BONDANNOTATIONS>
10  15  8
12  16  8
13  17  8
14  18  8
15  16  8
17  19  8
18  19  8
2  5  8
2  8  8
4  11  8
4  8  8
5  10  8
5  7  8
7  11  8
7  12  8
9  13  8
9  14  8

$$$$
4919623
  -OEChem-11301216572D

 37 39  0     0  0  0  0  0  0999 V2000
    2.8660   -1.5194    0.0000 I   0  0  0  0  0  0  0  0  0  0  0  0
    5.4641   -3.0194    0.0000 O   0  0  0  0  0  0  0  0  0  0  0  0
    5.4641    2.9806    0.0000 N   0  0  0  0  0  0  0  0  0  0  0  0
    4.5981   -1.5194    0.0000 N   0  0  0  0  0  0  0  0  0  0  0  0
    5.4641   -0.0194    0.0000 C   0  0  0  0  0  0  0  0  0  0  0  0
    5.4641    1.9806    0.0000 C   0  0  0  0  0  0  0  0  0  0  0  0
    5.4641   -1.0194    0.0000 C   0  0  0  0  0  0  0  0  0  0  0  0
    6.3301    0.4806    0.0000 C   0  0  0  0  0  0  0  0  0  0  0  0
    4.5981    0.4806    0.0000 C   0  0  0  0  0  0  0  0  0  0  0  0
    6.3301    1.4806    0.0000 C   0  0  0  0  0  0  0  0  0  0  0  0
    4.5981    1.4806    0.0000 C   0  0  0  0  0  0  0  0  0  0  0  0
    6.2731    3.5684    0.0000 C   0  0  0  0  0  0  0  0  0  0  0  0
    4.6551    3.5684    0.0000 C   0  0  0  0  0  0  0  0  0  0  0  0
    4.5981   -2.5194    0.0000 C   0  0  0  0  0  0  0  0  0  0  0  0
    3.7320   -3.0194    0.0000 C   0  0  0  0  0  0  0  0  0  0  0  0
    4.9641    4.5194    0.0000 C   0  0  0  0  0  0  0  0  0  0  0  0
    5.9641    4.5194    0.0000 C   0  0  0  0  0  0  0  0  0  0  0  0
    2.8660   -2.5194    0.0000 C   0  0  0  0  0  0  0  0  0  0  0  0
    3.7320   -4.0194    0.0000 C   0  0  0  0  0  0  0  0  0  0  0  0
    2.0000   -3.0194    0.0000 C   0  0  0  0  0  0  0  0  0  0  0  0
    2.8660   -4.5194    0.0000 C   0  0  0  0  0  0  0  0  0  0  0  0
    2.0000   -4.0194    0.0000 C   0  0  0  0  0  0  0  0  0  0  0  0
    5.6762   -1.6020    0.0000 H   0  0  0  0  0  0  0  0  0  0  0  0
    6.0747   -0.9118    0.0000 H   0  0  0  0  0  0  0  0  0  0  0  0
    6.8671    0.1706    0.0000 H   0  0  0  0  0  0  0  0  0  0  0  0
    4.0611    0.1706    0.0000 H   0  0  0  0  0  0  0  0  0  0  0  0
    6.8671    1.7906    0.0000 H   0  0  0  0  0  0  0  0  0  0  0  0
    4.0611    1.7906    0.0000 H   0  0  0  0  0  0  0  0  0  0  0  0
    4.0611   -1.2094    0.0000 H   0  0  0  0  0  0  0  0  0  0  0  0
    6.8628    3.3768    0.0000 H   0  0  0  0  0  0  0  0  0  0  0  0
    4.0654    3.3768    0.0000 H   0  0  0  0  0  0  0  0  0  0  0  0
    6.3285    5.0210    0.0000 H   0  0  0  0  0  0  0  0  0  0  0  0
    4.5997    5.0210    0.0000 H   0  0  0  0  0  0  0  0  0  0  0  0
    4.2690   -4.3294    0.0000 H   0  0  0  0  0  0  0  0  0  0  0  0
    1.4631   -2.7094    0.0000 H   0  0  0  0  0  0  0  0  0  0  0  0
    2.8660   -5.1394    0.0000 H   0  0  0  0  0  0  0  0  0  0  0  0
    1.4631   -4.3294    0.0000 H   0  0  0  0  0  0  0  0  0  0  0  0
  1 18  1  0  0  0  0
  2 14  2  0  0  0  0
  3  6  1  0  0  0  0
  3 12  1  0  0  0  0
  3 13  1  0  0  0  0
  4  7  1  0  0  0  0
  4 14  1  0  0  0  0
  4 29  1  0  0  0  0
  5  7  1  0  0  0  0
  5  8  2  0  0  0  0
  5  9  1  0  0  0  0
  6 10  2  0  0  0  0
  6 11  1  0  0  0  0
  7 23  1  0  0  0  0
  7 24  1  0  0  0  0
  8 10  1  0  0  0  0
  8 25  1  0  0  0  0
  9 11  2  0  0  0  0
  9 26  1  0  0  0  0
 10 27  1  0  0  0  0
 11 28  1  0  0  0  0
 12 17  2  0  0  0  0
 12 30  1  0  0  0  0
 13 16  2  0  0  0  0
 13 31  1  0  0  0  0
 14 15  1  0  0  0  0
 15 18  1  0  0  0  0
 15 19  2  0  0  0  0
 16 17  1  0  0  0  0
 16 33  1  0  0  0  0
 17 32  1  0  0  0  0
 18 20  2  0  0  0  0
 19 21  1  0  0  0  0
 19 34  1  0  0  0  0
 20 22  1  0  0  0  0
 20 35  1  0  0  0  0
 21 22  2  0  0  0  0
 21 36  1  0  0  0  0
 22 37  1  0  0  0  0
M  END
> <PUBCHEM_COMPOUND_CID>
4919623

> <PUBCHEM_COMPOUND_CANONICALIZED>
1

> <PUBCHEM_CACTVS_COMPLEXITY>
362

> <PUBCHEM_CACTVS_HBOND_ACCEPTOR>
1

> <PUBCHEM_CACTVS_HBOND_DONOR>
1

> <PUBCHEM_CACTVS_ROTATABLE_BOND>
4

> <PUBCHEM_CACTVS_SUBSKEYS>
AAADccB7IAAAAgAAAAAAAAAAAAAAAWAAAAAwYAAAAAAAAAAB0AAAHgAwAAAADAjDmgQ8wJPMEACoAjV3VACCgCA1AiAI2KE4ZNgIIPLAlZGEIQhghgDIyYcYiACOCAAAAAAAAAAQAAAAAAAAAAAAAAAAAA==

> <PUBCHEM_IUPAC_OPENEYE_NAME>
2-iodo-N-[(4-pyrrol-1-ylphenyl)methyl]benzamide

> <PUBCHEM_IUPAC_CAS_NAME>
2-iodo-N-[[4-(1-pyrrolyl)phenyl]methyl]benzamide

> <PUBCHEM_IUPAC_NAME>
2-iodo-N-[(4-pyrrol-1-ylphenyl)methyl]benzamide

> <PUBCHEM_IUPAC_SYSTEMATIC_NAME>
2-iodanyl-N-[(4-pyrrol-1-ylphenyl)methyl]benzamide

> <PUBCHEM_IUPAC_TRADITIONAL_NAME>
2-iodo-N-(4-pyrrol-1-ylbenzyl)benzamide

> <PUBCHEM_IUPAC_INCHI>
InChI=1S/C18H15IN2O/c19-17-6-2-1-5-16(17)18(22)20-13-14-7-9-15(10-8-14)21-11-3-4-12-21/h1-12H,13H2,(H,20,22)

> <PUBCHEM_IUPAC_INCHIKEY>
HRSHKFFDNDFMRC-UHFFFAOYSA-N

> <PUBCHEM_XLOGP3>
3.3

> <PUBCHEM_EXACT_MASS>
402.022911

> <PUBCHEM_MOLECULAR_FORMULA>
C18H15IN2O

> <PUBCHEM_MOLECULAR_WEIGHT>
402.22897

> <PUBCHEM_OPENEYE_CAN_SMILES>
C1=CC=C(C(=C1)C(=O)NCC2=CC=C(C=C2)N3C=CC=C3)I

> <PUBCHEM_OPENEYE_ISO_SMILES>
C1=CC=C(C(=C1)C(=O)NCC2=CC=C(C=C2)N3C=CC=C3)I

> <PUBCHEM_CACTVS_TPSA>
34

> <PUBCHEM_MONOISOTOPIC_WEIGHT>
402.022911

> <PUBCHEM_TOTAL_CHARGE>
0

> <PUBCHEM_HEAVY_ATOM_COUNT>
22

> <PUBCHEM_ATOM_DEF_STEREO_COUNT>
0

> <PUBCHEM_ATOM_UDEF_STEREO_COUNT>
0

> <PUBCHEM_BOND_DEF_STEREO_COUNT>
0

> <PUBCHEM_BOND_UDEF_STEREO_COUNT>
0

> <PUBCHEM_ISOTOPIC_ATOM_COUNT>
0

> <PUBCHEM_COMPONENT_COUNT>
1

> <PUBCHEM_CACTVS_TAUTO_COUNT>
2

> <PUBCHEM_COORDINATE_TYPE>
1
5
255

> <PUBCHEM_BONDANNOTATIONS>
12  17  8
13  16  8
15  18  8
15  19  8
16  17  8
18  20  8
19  21  8
20  22  8
21  22  8
3  12  8
3  13  8
5  8  8
5  9  8
6  10  8
6  11  8
8  10  8
9  11  8

$$$$
4921933
  -OEChem-11301216572D

 30 30  0     0  0  0  0  0  0999 V2000
    2.8660   -2.9330    0.0000 F   0  0  0  0  0  0  0  0  0  0  0  0
    3.7320    1.5670    0.0000 N   0  3  0  0  0  0  0  0  0  0  0  0
    4.5981    2.0670    0.0000 C   0  0  0  0  0  0  0  0  0  0  0  0
    2.8660    1.0670    0.0000 C   0  0  0  0  0  0  0  0  0  0  0  0
    5.4641    2.5670    0.0000 C   0  0  0  0  0  0  0  0  0  0  0  0
    4.0981    2.9330    0.0000 C   0  0  0  0  0  0  0  0  0  0  0  0
    5.0981    1.2010    0.0000 C   0  0  0  0  0  0  0  0  0  0  0  0
    2.8660    0.0670    0.0000 C   0  0  0  0  0  0  0  0  0  0  0  0
    2.0000   -0.4330    0.0000 C   0  0  0  0  0  0  0  0  0  0  0  0
    3.7320   -0.4330    0.0000 C   0  0  0  0  0  0  0  0  0  0  0  0
    2.0000   -1.4330    0.0000 C   0  0  0  0  0  0  0  0  0  0  0  0
    3.7320   -1.4330    0.0000 C   0  0  0  0  0  0  0  0  0  0  0  0
    2.8660   -1.9330    0.0000 C   0  0  0  0  0  0  0  0  0  0  0  0
    3.4220    2.1039    0.0000 H   0  0  0  0  0  0  0  0  0  0  0  0
    4.0420    1.0300    0.0000 H   0  0  0  0  0  0  0  0  0  0  0  0
    2.6540    1.6496    0.0000 H   0  0  0  0  0  0  0  0  0  0  0  0
    2.2554    0.9593    0.0000 H   0  0  0  0  0  0  0  0  0  0  0  0
    5.7741    2.0300    0.0000 H   0  0  0  0  0  0  0  0  0  0  0  0
    4.6350    3.2430    0.0000 H   0  0  0  0  0  0  0  0  0  0  0  0
    3.7881    3.4700    0.0000 H   0  0  0  0  0  0  0  0  0  0  0  0
    3.5611    2.6230    0.0000 H   0  0  0  0  0  0  0  0  0  0  0  0
    4.5611    0.8910    0.0000 H   0  0  0  0  0  0  0  0  0  0  0  0
    5.4081    0.6640    0.0000 H   0  0  0  0  0  0  0  0  0  0  0  0
    5.6350    1.5110    0.0000 H   0  0  0  0  0  0  0  0  0  0  0  0
    6.0010    2.8770    0.0000 H   0  0  0  0  0  0  0  0  0  0  0  0
    5.1541    3.1039    0.0000 H   0  0  0  0  0  0  0  0  0  0  0  0
    1.4631   -0.1230    0.0000 H   0  0  0  0  0  0  0  0  0  0  0  0
    4.2690   -0.1230    0.0000 H   0  0  0  0  0  0  0  0  0  0  0  0
    1.4631   -1.7430    0.0000 H   0  0  0  0  0  0  0  0  0  0  0  0
    4.2690   -1.7430    0.0000 H   0  0  0  0  0  0  0  0  0  0  0  0
  1 13  1  0  0  0  0
  2  3  1  0  0  0  0
  2  4  1  0  0  0  0
  2 14  1  0  0  0  0
  2 15  1  0  0  0  0
  3  5  1  0  0  0  0
  3  6  1  0  0  0  0
  3  7  1  0  0  0  0
  4  8  1  0  0  0  0
  4 16  1  0  0  0  0
  4 17  1  0  0  0  0
  5 18  1  0  0  0  0
  5 25  1  0  0  0  0
  5 26  1  0  0  0  0
  6 19  1  0  0  0  0
  6 20  1  0  0  0  0
  6 21  1  0  0  0  0
  7 22  1  0  0  0  0
  7 23  1  0  0  0  0
  7 24  1  0  0  0  0
  8  9  2  0  0  0  0
  8 10  1  0  0  0  0
  9 11  1  0  0  0  0
  9 27  1  0  0  0  0
 10 12  2  0  0  0  0
 10 28  1  0  0  0  0
 11 13  2  0  0  0  0
 11 29  1  0  0  0  0
 12 13  1  0  0  0  0
 12 30  1  0  0  0  0
M  CHG  1   2   1
M  END
> <PUBCHEM_COMPOUND_CID>
4921933

> <PUBCHEM_COMPOUND_CANONICALIZED>
1

> <PUBCHEM_CACTVS_COMPLEXITY>
143

> <PUBCHEM_CACTVS_HBOND_ACCEPTOR>
1

> <PUBCHEM_CACTVS_HBOND_DONOR>
1

> <PUBCHEM_CACTVS_ROTATABLE_BOND>
3

> <PUBCHEM_CACTVS_SUBSKEYS>
AAADceByAQAAAAAAAAAAAAAAAAAAAAAAAAAwAAAAAAAAAAABAAAAHQAQAAAADIjBGAwyAILAAACAAiBCAACCAAAgAAAIiIAIBIgIICKAkRGEIAhgkACIiAcQgAAOAAAAAAAAAAAAAAAAAAAAAAAAAAAAAA==

> <PUBCHEM_IUPAC_OPENEYE_NAME>
tert-butyl-[(4-fluorophenyl)methyl]ammonium

> <PUBCHEM_IUPAC_CAS_NAME>
tert-butyl-[(4-fluorophenyl)methyl]ammonium

> <PUBCHEM_IUPAC_NAME>
tert-butyl-[(4-fluorophenyl)methyl]azanium

> <PUBCHEM_IUPAC_SYSTEMATIC_NAME>
tert-butyl-[(4-fluorophenyl)methyl]azanium

> <PUBCHEM_IUPAC_TRADITIONAL_NAME>
tert-butyl-(4-fluorobenzyl)ammonium

> <PUBCHEM_IUPAC_INCHI>
InChI=1S/C11H16FN/c1-11(2,3)13-8-9-4-6-10(12)7-5-9/h4-7,13H,8H2,1-3H3/p+1

> <PUBCHEM_IUPAC_INCHIKEY>
LPILEJRPIAXWIE-UHFFFAOYSA-O

> <PUBCHEM_XLOGP3>
2.6

> <PUBCHEM_EXACT_MASS>
182.134503

> <PUBCHEM_MOLECULAR_FORMULA>
C11H17FN+

> <PUBCHEM_MOLECULAR_WEIGHT>
182.257783

> <PUBCHEM_OPENEYE_CAN_SMILES>
CC(C)(C)[NH2+]CC1=CC=C(C=C1)F

> <PUBCHEM_OPENEYE_ISO_SMILES>
CC(C)(C)[NH2+]CC1=CC=C(C=C1)F

> <PUBCHEM_CACTVS_TPSA>
16.6

> <PUBCHEM_MONOISOTOPIC_WEIGHT>
182.134503

> <PUBCHEM_TOTAL_CHARGE>
1

> <PUBCHEM_HEAVY_ATOM_COUNT>
13

> <PUBCHEM_ATOM_DEF_STEREO_COUNT>
0

> <PUBCHEM_ATOM_UDEF_STEREO_COUNT>
0

> <PUBCHEM_BOND_DEF_STEREO_COUNT>
0

> <PUBCHEM_BOND_UDEF_STEREO_COUNT>
0

> <PUBCHEM_ISOTOPIC_ATOM_COUNT>
0

> <PUBCHEM_COMPONENT_COUNT>
1

> <PUBCHEM_CACTVS_TAUTO_COUNT>
1

> <PUBCHEM_COORDINATE_TYPE>
1
5
255

> <PUBCHEM_BONDANNOTATIONS>
10  12  8
11  13  8
12  13  8
8  10  8
8  9  8
9  11  8

$$$$
