33076292
  -OEChem-10191221412D

 38 39  0     0  0  0  0  0  0999 V2000
    6.7619    1.9011    0.0000 O   0  0  0  0  0  0  0  0  0  0  0  0
    6.7619    0.1690    0.0000 N   0  0  0  0  0  0  0  0  0  0  0  0
    4.6783    1.8398    0.0000 N   0  0  0  0  0  0  0  0  0  0  0  0
    9.2619   -0.6970    0.0000 C   0  0  0  0  0  0  0  0  0  0  0  0
    9.7619   -1.5631    0.0000 C   0  0  0  0  0  0  0  0  0  0  0  0
    8.2619   -0.6970    0.0000 C   0  0  0  0  0  0  0  0  0  0  0  0
    7.7619    0.1690    0.0000 C   0  0  0  0  0  0  0  0  0  0  0  0
   10.7619   -1.5631    0.0000 C   0  0  0  0  0  0  0  0  0  0  0  0
    9.2619   -2.4291    0.0000 C   0  0  0  0  0  0  0  0  0  0  0  0
    5.2619    1.0350    0.0000 C   0  0  0  0  0  0  0  0  0  0  0  0
    6.2619    1.0350    0.0000 C   0  0  0  0  0  0  0  0  0  0  0  0
    3.7321    1.5350    0.0000 C   0  0  0  0  0  0  0  0  0  0  0  0
    3.7321    0.5350    0.0000 C   0  0  0  0  0  0  0  0  0  0  0  0
    4.6783    0.2303    0.0000 C   0  0  0  0  0  0  0  0  0  0  0  0
    2.8660    2.0350    0.0000 C   0  0  0  0  0  0  0  0  0  0  0  0
    2.8660    0.0350    0.0000 C   0  0  0  0  0  0  0  0  0  0  0  0
    2.0000    1.5350    0.0000 C   0  0  0  0  0  0  0  0  0  0  0  0
    2.0000    0.5350    0.0000 C   0  0  0  0  0  0  0  0  0  0  0  0
    9.8445   -0.4850    0.0000 H   0  0  0  0  0  0  0  0  0  0  0  0
    9.1542   -0.0864    0.0000 H   0  0  0  0  0  0  0  0  0  0  0  0
    9.1419   -1.5631    0.0000 H   0  0  0  0  0  0  0  0  0  0  0  0
    7.6793   -0.9091    0.0000 H   0  0  0  0  0  0  0  0  0  0  0  0
    8.3695   -1.3076    0.0000 H   0  0  0  0  0  0  0  0  0  0  0  0
    8.3445    0.3811    0.0000 H   0  0  0  0  0  0  0  0  0  0  0  0
    7.6542    0.7796    0.0000 H   0  0  0  0  0  0  0  0  0  0  0  0
   10.7619   -2.1831    0.0000 H   0  0  0  0  0  0  0  0  0  0  0  0
   11.3819   -1.5631    0.0000 H   0  0  0  0  0  0  0  0  0  0  0  0
   10.7619   -0.9431    0.0000 H   0  0  0  0  0  0  0  0  0  0  0  0
    8.7249   -2.1191    0.0000 H   0  0  0  0  0  0  0  0  0  0  0  0
    8.9519   -2.9660    0.0000 H   0  0  0  0  0  0  0  0  0  0  0  0
    9.7988   -2.7391    0.0000 H   0  0  0  0  0  0  0  0  0  0  0  0
    6.4519   -0.3679    0.0000 H   0  0  0  0  0  0  0  0  0  0  0  0
    4.8709    2.4291    0.0000 H   0  0  0  0  0  0  0  0  0  0  0  0
    4.8709   -0.3590    0.0000 H   0  0  0  0  0  0  0  0  0  0  0  0
    2.8660    2.6550    0.0000 H   0  0  0  0  0  0  0  0  0  0  0  0
    2.8660   -0.5850    0.0000 H   0  0  0  0  0  0  0  0  0  0  0  0
    1.4631    1.8450    0.0000 H   0  0  0  0  0  0  0  0  0  0  0  0
    1.4631    0.2250    0.0000 H   0  0  0  0  0  0  0  0  0  0  0  0
  1 11  2  0  0  0  0
  2  7  1  0  0  0  0
  2 11  1  0  0  0  0
  2 32  1  0  0  0  0
  3 10  1  0  0  0  0
  3 12  1  0  0  0  0
  3 33  1  0  0  0  0
  4  5  1  0  0  0  0
  4  6  1  0  0  0  0
  4 19  1  0  0  0  0
  4 20  1  0  0  0  0
  5  8  1  0  0  0  0
  5  9  1  0  0  0  0
  5 21  1  0  0  0  0
  6  7  1  0  0  0  0
  6 22  1  0  0  0  0
  6 23  1  0  0  0  0
  7 24  1  0  0  0  0
  7 25  1  0  0  0  0
  8 26  1  0  0  0  0
  8 27  1  0  0  0  0
  8 28  1  0  0  0  0
  9 29  1  0  0  0  0
  9 30  1  0  0  0  0
  9 31  1  0  0  0  0
 10 11  1  0  0  0  0
 10 14  2  0  0  0  0
 12 13  1  0  0  0  0
 12 15  2  0  0  0  0
 13 14  1  0  0  0  0
 13 16  2  0  0  0  0
 14 34  1  0  0  0  0
 15 17  1  0  0  0  0
 15 35  1  0  0  0  0
 16 18  1  0  0  0  0
 16 36  1  0  0  0  0
 17 18  2  0  0  0  0
 17 37  1  0  0  0  0
 18 38  1  0  0  0  0
M  END
> <PUBCHEM_COMPOUND_CID>
33076292

> <PUBCHEM_COMPOUND_CANONICALIZED>
1

> <PUBCHEM_CACTVS_COMPLEXITY>
278

> <PUBCHEM_CACTVS_HBOND_ACCEPTOR>
1

> <PUBCHEM_CACTVS_HBOND_DONOR>
2

> <PUBCHEM_CACTVS_ROTATABLE_BOND>
5

> <PUBCHEM_CACTVS_SUBSKEYS>
AAADceBzIAAAAAAAAAAAAAAAAAAAAWAAAAAwAAAAAAAAAFgB8AAAHgAQAAAADQjBngQywPLJkACoAyVyVACCgCAnAiAImaG4ZNgIYPLAlbGUIQhglgDIyYcYiYCeAAAAAAACAAAAAAAAAAQAAAAAAAAAAA==

> <PUBCHEM_IUPAC_OPENEYE_NAME>
N-isohexyl-1H-indole-2-carboxamide

> <PUBCHEM_IUPAC_CAS_NAME>
N-(4-methylpentyl)-1H-indole-2-carboxamide

> <PUBCHEM_IUPAC_NAME>
N-(4-methylpentyl)-1H-indole-2-carboxamide

> <PUBCHEM_IUPAC_SYSTEMATIC_NAME>
N-(4-methylpentyl)-1H-indole-2-carboxamide

> <PUBCHEM_IUPAC_TRADITIONAL_NAME>
N-isohexyl-1H-indole-2-carboxamide

> <PUBCHEM_IUPAC_INCHI>
InChI=1S/C15H20N2O/c1-11(2)6-5-9-16-15(18)14-10-12-7-3-4-8-13(12)17-14/h3-4,7-8,10-11,17H,5-6,9H2,1-2H3,(H,16,18)

> <PUBCHEM_IUPAC_INCHIKEY>
LPDIJWSAEGMDKF-UHFFFAOYSA-N

> <PUBCHEM_XLOGP3>
4.1

> <PUBCHEM_EXACT_MASS>
244.157563

> <PUBCHEM_MOLECULAR_FORMULA>
C15H20N2O

> <PUBCHEM_MOLECULAR_WEIGHT>
244.3321

> <PUBCHEM_OPENEYE_CAN_SMILES>
CC(C)CCCNC(=O)C1=CC2=CC=CC=C2N1

> <PUBCHEM_OPENEYE_ISO_SMILES>
CC(C)CCCNC(=O)C1=CC2=CC=CC=C2N1

> <PUBCHEM_CACTVS_TPSA>
44.9

> <PUBCHEM_MONOISOTOPIC_WEIGHT>
244.157563

> <PUBCHEM_TOTAL_CHARGE>
0

> <PUBCHEM_HEAVY_ATOM_COUNT>
18

> <PUBCHEM_ATOM_DEF_STEREO_COUNT>
0

> <PUBCHEM_ATOM_UDEF_STEREO_COUNT>
0

> <PUBCHEM_BOND_DEF_STEREO_COUNT>
0

> <PUBCHEM_BOND_UDEF_STEREO_COUNT>
0

> <PUBCHEM_ISOTOPIC_ATOM_COUNT>
0

> <PUBCHEM_COMPONENT_COUNT>
1

> <PUBCHEM_CACTVS_TAUTO_COUNT>
11

> <PUBCHEM_COORDINATE_TYPE>
1
5
255

> <PUBCHEM_BONDANNOTATIONS>
10  14  8
12  13  8
12  15  8
13  14  8
13  16  8
15  17  8
16  18  8
17  18  8
3  10  8
3  12  8

$$$$
