42233773
  -OEChem-12041212012D

 32 33  0     0  0  0  0  0  0999 V2000
    5.4641   -1.5185    0.0000 O   0  0  0  0  0  0  0  0  0  0  0  0
    6.3301    2.9815    0.0000 N   0  3  0  0  0  0  0  0  0  0  0  0
    5.4641    1.4815    0.0000 C   0  0  0  0  0  0  0  0  0  0  0  0
    5.4641    2.4815    0.0000 C   0  0  0  0  0  0  0  0  0  0  0  0
    5.4641   -0.5185    0.0000 C   0  0  0  0  0  0  0  0  0  0  0  0
    4.5981    0.9815    0.0000 C   0  0  0  0  0  0  0  0  0  0  0  0
    6.3301    0.9815    0.0000 C   0  0  0  0  0  0  0  0  0  0  0  0
    4.5981   -0.0185    0.0000 C   0  0  0  0  0  0  0  0  0  0  0  0
    6.3301   -0.0185    0.0000 C   0  0  0  0  0  0  0  0  0  0  0  0
    4.5981   -2.0185    0.0000 C   0  0  0  0  0  0  0  0  0  0  0  0
    2.8660   -2.0185    0.0000 C   0  0  0  0  0  0  0  0  0  0  0  0
    3.7320   -1.5185    0.0000 C   0  0  0  0  0  0  0  0  0  0  0  0
    4.5981   -3.0185    0.0000 C   0  0  0  0  0  0  0  0  0  0  0  0
    2.8660   -3.0185    0.0000 C   0  0  0  0  0  0  0  0  0  0  0  0
    3.7320   -3.5185    0.0000 C   0  0  0  0  0  0  0  0  0  0  0  0
    2.0000   -1.5185    0.0000 C   0  0  0  0  0  0  0  0  0  0  0  0
    5.2520    3.0641    0.0000 H   0  0  0  0  0  0  0  0  0  0  0  0
    4.8535    2.3739    0.0000 H   0  0  0  0  0  0  0  0  0  0  0  0
    4.0611    1.2915    0.0000 H   0  0  0  0  0  0  0  0  0  0  0  0
    6.8671    1.2915    0.0000 H   0  0  0  0  0  0  0  0  0  0  0  0
    4.0611   -0.3285    0.0000 H   0  0  0  0  0  0  0  0  0  0  0  0
    6.8671   -0.3285    0.0000 H   0  0  0  0  0  0  0  0  0  0  0  0
    6.8671    3.2915    0.0000 H   0  0  0  0  0  0  0  0  0  0  0  0
    6.0201    3.5185    0.0000 H   0  0  0  0  0  0  0  0  0  0  0  0
    6.6401    2.4446    0.0000 H   0  0  0  0  0  0  0  0  0  0  0  0
    3.7320   -0.8985    0.0000 H   0  0  0  0  0  0  0  0  0  0  0  0
    5.1350   -3.3285    0.0000 H   0  0  0  0  0  0  0  0  0  0  0  0
    2.3291   -3.3285    0.0000 H   0  0  0  0  0  0  0  0  0  0  0  0
    3.7320   -4.1385    0.0000 H   0  0  0  0  0  0  0  0  0  0  0  0
    2.3100   -0.9815    0.0000 H   0  0  0  0  0  0  0  0  0  0  0  0
    1.4631   -1.2085    0.0000 H   0  0  0  0  0  0  0  0  0  0  0  0
    1.6900   -2.0554    0.0000 H   0  0  0  0  0  0  0  0  0  0  0  0
  1  5  1  0  0  0  0
  1 10  1  0  0  0  0
  2  4  1  0  0  0  0
  2 23  1  0  0  0  0
  2 24  1  0  0  0  0
  2 25  1  0  0  0  0
  3  4  1  0  0  0  0
  3  6  2  0  0  0  0
  3  7  1  0  0  0  0
  4 17  1  0  0  0  0
  4 18  1  0  0  0  0
  5  8  2  0  0  0  0
  5  9  1  0  0  0  0
  6  8  1  0  0  0  0
  6 19  1  0  0  0  0
  7  9  2  0  0  0  0
  7 20  1  0  0  0  0
  8 21  1  0  0  0  0
  9 22  1  0  0  0  0
 10 12  1  0  0  0  0
 10 13  2  0  0  0  0
 11 12  2  0  0  0  0
 11 14  1  0  0  0  0
 11 16  1  0  0  0  0
 12 26  1  0  0  0  0
 13 15  1  0  0  0  0
 13 27  1  0  0  0  0
 14 15  2  0  0  0  0
 14 28  1  0  0  0  0
 15 29  1  0  0  0  0
 16 30  1  0  0  0  0
 16 31  1  0  0  0  0
 16 32  1  0  0  0  0
M  CHG  1   2   1
M  END
> <PUBCHEM_COMPOUND_CID>
42233773

> <PUBCHEM_COMPOUND_CANONICALIZED>
1

> <PUBCHEM_CACTVS_COMPLEXITY>
199

> <PUBCHEM_CACTVS_HBOND_ACCEPTOR>
1

> <PUBCHEM_CACTVS_HBOND_DONOR>
1

> <PUBCHEM_CACTVS_ROTATABLE_BOND>
3

> <PUBCHEM_CACTVS_SUBSKEYS>
AAADceByIAAAAAAAAAAAAAAAAAAAAAAAAAAwYAAAAAAAAAABQAAAHgAQAAAADATBmAQyBoBABACAAiBCAACCCAAgIAAIiIAGDIgMJiKEsRuCOCDkwBEIqAeQ0BAOIAABAAAAAABAAAIAAAAAAAAAAAAAAA==

> <PUBCHEM_IUPAC_OPENEYE_NAME>
[4-(3-methylphenoxy)phenyl]methylammonium

> <PUBCHEM_IUPAC_CAS_NAME>
[4-(3-methylphenoxy)phenyl]methylammonium

> <PUBCHEM_IUPAC_NAME>
[4-(3-methylphenoxy)phenyl]methylazanium

> <PUBCHEM_IUPAC_SYSTEMATIC_NAME>
[4-(3-methylphenoxy)phenyl]methylazanium

> <PUBCHEM_IUPAC_TRADITIONAL_NAME>
[4-(3-methylphenoxy)benzyl]ammonium

> <PUBCHEM_IUPAC_INCHI>
InChI=1S/C14H15NO/c1-11-3-2-4-14(9-11)16-13-7-5-12(10-15)6-8-13/h2-9H,10,15H2,1H3/p+1

> <PUBCHEM_IUPAC_INCHIKEY>
LCTHKXNDILXRIZ-UHFFFAOYSA-O

> <PUBCHEM_XLOGP3>
3.1

> <PUBCHEM_EXACT_MASS>
214.123189

> <PUBCHEM_MOLECULAR_FORMULA>
C14H16NO+

> <PUBCHEM_MOLECULAR_WEIGHT>
214.28294

> <PUBCHEM_OPENEYE_CAN_SMILES>
CC1=CC(=CC=C1)OC2=CC=C(C=C2)C[NH3+]

> <PUBCHEM_OPENEYE_ISO_SMILES>
CC1=CC(=CC=C1)OC2=CC=C(C=C2)C[NH3+]

> <PUBCHEM_CACTVS_TPSA>
36.9

> <PUBCHEM_MONOISOTOPIC_WEIGHT>
214.123189

> <PUBCHEM_TOTAL_CHARGE>
1

> <PUBCHEM_HEAVY_ATOM_COUNT>
16

> <PUBCHEM_ATOM_DEF_STEREO_COUNT>
0

> <PUBCHEM_ATOM_UDEF_STEREO_COUNT>
0

> <PUBCHEM_BOND_DEF_STEREO_COUNT>
0

> <PUBCHEM_BOND_UDEF_STEREO_COUNT>
0

> <PUBCHEM_ISOTOPIC_ATOM_COUNT>
0

> <PUBCHEM_COMPONENT_COUNT>
1

> <PUBCHEM_CACTVS_TAUTO_COUNT>
1

> <PUBCHEM_COORDINATE_TYPE>
1
5
255

> <PUBCHEM_BONDANNOTATIONS>
10  12  8
10  13  8
11  12  8
11  14  8
13  15  8
14  15  8
3  6  8
3  7  8
5  8  8
5  9  8
6  8  8
7  9  8

$$$$
42235048
  -OEChem-12041212012D

 29 30  0     0  0  0  0  0  0999 V2000
    4.3211    0.8676    0.0000 O   0  0  0  0  0  0  0  0  0  0  0  0
    4.6783   -2.4367    0.0000 N   0  0  0  0  0  0  0  0  0  0  0  0
    5.9674    0.3295    0.0000 N   0  0  0  0  0  0  0  0  0  0  0  0
    7.5673    2.4367    0.0000 N   0  3  0  0  0  0  0  0  0  0  0  0
    3.7320   -1.1320    0.0000 C   0  0  0  0  0  0  0  0  0  0  0  0
    4.6783   -0.8273    0.0000 C   0  0  0  0  0  0  0  0  0  0  0  0
    3.7320   -2.1320    0.0000 C   0  0  0  0  0  0  0  0  0  0  0  0
    6.2781    1.2800    0.0000 C   0  0  0  0  0  0  0  0  0  0  0  0
    5.2619   -1.6320    0.0000 C   0  0  0  0  0  0  0  0  0  0  0  0
    4.9889    0.1233    0.0000 C   0  0  0  0  0  0  0  0  0  0  0  0
    7.2566    1.4862    0.0000 C   0  0  0  0  0  0  0  0  0  0  0  0
    2.8660   -0.6320    0.0000 C   0  0  0  0  0  0  0  0  0  0  0  0
    2.8660   -2.6320    0.0000 C   0  0  0  0  0  0  0  0  0  0  0  0
    2.0000   -1.1320    0.0000 C   0  0  0  0  0  0  0  0  0  0  0  0
    2.0000   -2.1320    0.0000 C   0  0  0  0  0  0  0  0  0  0  0  0
    6.2575    1.8996    0.0000 H   0  0  0  0  0  0  0  0  0  0  0  0
    5.6643    1.3673    0.0000 H   0  0  0  0  0  0  0  0  0  0  0  0
    5.8819   -1.6320    0.0000 H   0  0  0  0  0  0  0  0  0  0  0  0
    4.8709   -3.0260    0.0000 H   0  0  0  0  0  0  0  0  0  0  0  0
    7.2772    0.8666    0.0000 H   0  0  0  0  0  0  0  0  0  0  0  0
    7.8704    1.3989    0.0000 H   0  0  0  0  0  0  0  0  0  0  0  0
    6.3815   -0.1320    0.0000 H   0  0  0  0  0  0  0  0  0  0  0  0
    2.8660   -0.0120    0.0000 H   0  0  0  0  0  0  0  0  0  0  0  0
    2.8660   -3.2520    0.0000 H   0  0  0  0  0  0  0  0  0  0  0  0
    1.4631   -0.8220    0.0000 H   0  0  0  0  0  0  0  0  0  0  0  0
    1.4631   -2.4420    0.0000 H   0  0  0  0  0  0  0  0  0  0  0  0
    7.7599    3.0260    0.0000 H   0  0  0  0  0  0  0  0  0  0  0  0
    8.1566    2.2441    0.0000 H   0  0  0  0  0  0  0  0  0  0  0  0
    6.9780    2.6293    0.0000 H   0  0  0  0  0  0  0  0  0  0  0  0
  1 10  2  0  0  0  0
  2  7  1  0  0  0  0
  2  9  1  0  0  0  0
  2 19  1  0  0  0  0
  3  8  1  0  0  0  0
  3 10  1  0  0  0  0
  3 22  1  0  0  0  0
  4 11  1  0  0  0  0
  4 27  1  0  0  0  0
  4 28  1  0  0  0  0
  4 29  1  0  0  0  0
  5  6  1  0  0  0  0
  5  7  1  0  0  0  0
  5 12  2  0  0  0  0
  6  9  2  0  0  0  0
  6 10  1  0  0  0  0
  7 13  2  0  0  0  0
  8 11  1  0  0  0  0
  8 16  1  0  0  0  0
  8 17  1  0  0  0  0
  9 18  1  0  0  0  0
 11 20  1  0  0  0  0
 11 21  1  0  0  0  0
 12 14  1  0  0  0  0
 12 23  1  0  0  0  0
 13 15  1  0  0  0  0
 13 24  1  0  0  0  0
 14 15  2  0  0  0  0
 14 25  1  0  0  0  0
 15 26  1  0  0  0  0
M  CHG  1   4   1
M  END
> <PUBCHEM_COMPOUND_CID>
42235048

> <PUBCHEM_COMPOUND_CANONICALIZED>
1

> <PUBCHEM_CACTVS_COMPLEXITY>
232

> <PUBCHEM_CACTVS_HBOND_ACCEPTOR>
1

> <PUBCHEM_CACTVS_HBOND_DONOR>
3

> <PUBCHEM_CACTVS_ROTATABLE_BOND>
3

> <PUBCHEM_CACTVS_SUBSKEYS>
AAADccBzIAAAAAAAAAAAAAAAAAAAAWAAAAAwAAAAAAAAAFgB8AAAHgAQAAAADAjBngQ8wPLJkACoAzV3VACCgCA1AiAI2aE4ZNgIYPrA1ZGUIYhglgDIyccciMCOgAAAAAACAAAAAAAAAAQAAAAAAAAAAA==

> <PUBCHEM_IUPAC_OPENEYE_NAME>
2-(1H-indole-3-carbonylamino)ethylammonium

> <PUBCHEM_IUPAC_CAS_NAME>
2-[[1H-indol-3-yl(oxo)methyl]amino]ethylammonium

> <PUBCHEM_IUPAC_NAME>
2-(1H-indole-3-carbonylamino)ethylazanium

> <PUBCHEM_IUPAC_SYSTEMATIC_NAME>
2-(1H-indol-3-ylcarbonylamino)ethylazanium

> <PUBCHEM_IUPAC_TRADITIONAL_NAME>
2-(1H-indole-3-carbonylamino)ethylammonium

> <PUBCHEM_IUPAC_INCHI>
InChI=1S/C11H13N3O/c12-5-6-13-11(15)9-7-14-10-4-2-1-3-8(9)10/h1-4,7,14H,5-6,12H2,(H,13,15)/p+1

> <PUBCHEM_IUPAC_INCHIKEY>
UNDHGGAQHGZOBD-UHFFFAOYSA-O

> <PUBCHEM_XLOGP3>
0.8

> <PUBCHEM_EXACT_MASS>
204.113687

> <PUBCHEM_MOLECULAR_FORMULA>
C11H14N3O+

> <PUBCHEM_MOLECULAR_WEIGHT>
204.24836

> <PUBCHEM_OPENEYE_CAN_SMILES>
C1=CC=C2C(=C1)C(=CN2)C(=O)NCC[NH3+]

> <PUBCHEM_OPENEYE_ISO_SMILES>
C1=CC=C2C(=C1)C(=CN2)C(=O)NCC[NH3+]

> <PUBCHEM_CACTVS_TPSA>
72.5

> <PUBCHEM_MONOISOTOPIC_WEIGHT>
204.113687

> <PUBCHEM_TOTAL_CHARGE>
1

> <PUBCHEM_HEAVY_ATOM_COUNT>
15

> <PUBCHEM_ATOM_DEF_STEREO_COUNT>
0

> <PUBCHEM_ATOM_UDEF_STEREO_COUNT>
0

> <PUBCHEM_BOND_DEF_STEREO_COUNT>
0

> <PUBCHEM_BOND_UDEF_STEREO_COUNT>
0

> <PUBCHEM_ISOTOPIC_ATOM_COUNT>
0

> <PUBCHEM_COMPONENT_COUNT>
1

> <PUBCHEM_CACTVS_TAUTO_COUNT>
5

> <PUBCHEM_COORDINATE_TYPE>
1
5
255

> <PUBCHEM_BONDANNOTATIONS>
12  14  8
13  15  8
14  15  8
2  7  8
2  9  8
5  12  8
5  6  8
5  7  8
6  9  8
7  13  8

$$$$
42235050
  -OEChem-12041212012D

 39 41  0     0  0  0  0  0  0999 V2000
    5.6103    2.2158    0.0000 O   0  0  0  0  0  0  0  0  0  0  0  0
    9.2136    2.0902    0.0000 N   0  3  0  0  0  0  0  0  0  0  0  0
    7.2566    1.6778    0.0000 N   0  0  0  0  0  0  0  0  0  0  0  0
    4.6783   -2.2452    0.0000 N   0  0  0  0  0  0  0  0  0  0  0  0
    8.5458    2.8345    0.0000 C   0  0  0  0  0  0  0  0  0  0  0  0
    8.9030    1.1397    0.0000 C   0  0  0  0  0  0  0  0  0  0  0  0
    7.5673    2.6283    0.0000 C   0  0  0  0  0  0  0  0  0  0  0  0
    7.9244    0.9335    0.0000 C   0  0  0  0  0  0  0  0  0  0  0  0
    6.2781    1.4715    0.0000 C   0  0  0  0  0  0  0  0  0  0  0  0
    5.9674    0.5210    0.0000 C   0  0  0  0  0  0  0  0  0  0  0  0
    4.9889    0.3148    0.0000 C   0  0  0  0  0  0  0  0  0  0  0  0
    4.6783   -0.6357    0.0000 C   0  0  0  0  0  0  0  0  0  0  0  0
    3.7320   -0.9404    0.0000 C   0  0  0  0  0  0  0  0  0  0  0  0
    3.7320   -1.9404    0.0000 C   0  0  0  0  0  0  0  0  0  0  0  0
    5.2619   -1.4404    0.0000 C   0  0  0  0  0  0  0  0  0  0  0  0
    2.8660   -0.4404    0.0000 C   0  0  0  0  0  0  0  0  0  0  0  0
    2.8660   -2.4404    0.0000 C   0  0  0  0  0  0  0  0  0  0  0  0
    2.0000   -0.9404    0.0000 C   0  0  0  0  0  0  0  0  0  0  0  0
    2.0000   -1.9404    0.0000 C   0  0  0  0  0  0  0  0  0  0  0  0
    9.6751    2.5043    0.0000 H   0  0  0  0  0  0  0  0  0  0  0  0
    9.8029    1.8976    0.0000 H   0  0  0  0  0  0  0  0  0  0  0  0
    9.0721    3.1621    0.0000 H   0  0  0  0  0  0  0  0  0  0  0  0
    8.3145    3.4098    0.0000 H   0  0  0  0  0  0  0  0  0  0  0  0
    8.9235    0.5200    0.0000 H   0  0  0  0  0  0  0  0  0  0  0  0
    9.5168    1.0523    0.0000 H   0  0  0  0  0  0  0  0  0  0  0  0
    7.5467    3.2479    0.0000 H   0  0  0  0  0  0  0  0  0  0  0  0
    6.9534    2.7156    0.0000 H   0  0  0  0  0  0  0  0  0  0  0  0
    7.3981    0.6058    0.0000 H   0  0  0  0  0  0  0  0  0  0  0  0
    8.1557    0.3582    0.0000 H   0  0  0  0  0  0  0  0  0  0  0  0
    5.9880   -0.0986    0.0000 H   0  0  0  0  0  0  0  0  0  0  0  0
    6.5812    0.4337    0.0000 H   0  0  0  0  0  0  0  0  0  0  0  0
    4.9684    0.9345    0.0000 H   0  0  0  0  0  0  0  0  0  0  0  0
    4.3751    0.4022    0.0000 H   0  0  0  0  0  0  0  0  0  0  0  0
    5.8819   -1.4404    0.0000 H   0  0  0  0  0  0  0  0  0  0  0  0
    4.8709   -2.8345    0.0000 H   0  0  0  0  0  0  0  0  0  0  0  0
    2.8660    0.1796    0.0000 H   0  0  0  0  0  0  0  0  0  0  0  0
    2.8660   -3.0604    0.0000 H   0  0  0  0  0  0  0  0  0  0  0  0
    1.4631   -0.6304    0.0000 H   0  0  0  0  0  0  0  0  0  0  0  0
    1.4631   -2.2504    0.0000 H   0  0  0  0  0  0  0  0  0  0  0  0
  1  9  2  0  0  0  0
  2  5  1  0  0  0  0
  2  6  1  0  0  0  0
  2 20  1  0  0  0  0
  2 21  1  0  0  0  0
  3  7  1  0  0  0  0
  3  8  1  0  0  0  0
  3  9  1  0  0  0  0
  4 14  1  0  0  0  0
  4 15  1  0  0  0  0
  4 35  1  0  0  0  0
  5  7  1  0  0  0  0
  5 22  1  0  0  0  0
  5 23  1  0  0  0  0
  6  8  1  0  0  0  0
  6 24  1  0  0  0  0
  6 25  1  0  0  0  0
  7 26  1  0  0  0  0
  7 27  1  0  0  0  0
  8 28  1  0  0  0  0
  8 29  1  0  0  0  0
  9 10  1  0  0  0  0
 10 11  1  0  0  0  0
 10 30  1  0  0  0  0
 10 31  1  0  0  0  0
 11 12  1  0  0  0  0
 11 32  1  0  0  0  0
 11 33  1  0  0  0  0
 12 13  1  0  0  0  0
 12 15  2  0  0  0  0
 13 14  1  0  0  0  0
 13 16  2  0  0  0  0
 14 17  2  0  0  0  0
 15 34  1  0  0  0  0
 16 18  1  0  0  0  0
 16 36  1  0  0  0  0
 17 19  1  0  0  0  0
 17 37  1  0  0  0  0
 18 19  2  0  0  0  0
 18 38  1  0  0  0  0
 19 39  1  0  0  0  0
M  CHG  1   2   1
M  END
> <PUBCHEM_COMPOUND_CID>
42235050

> <PUBCHEM_COMPOUND_CANONICALIZED>
1

> <PUBCHEM_CACTVS_COMPLEXITY>
315

> <PUBCHEM_CACTVS_HBOND_ACCEPTOR>
1

> <PUBCHEM_CACTVS_HBOND_DONOR>
2

> <PUBCHEM_CACTVS_ROTATABLE_BOND>
3

> <PUBCHEM_CACTVS_SUBSKEYS>
AAADceBzIAAAAAAAAAAAAAAAAAAAAWAAAAA8QAAAAAAAAFgB8AAAHgAQAAAADAjBngQ8wPPJkACoAzV3VACCgCAxAiAI2aE4ZJgIYPLAkZGUIAhglgDIyAcYicCOgAAAAAACAAAAAAAAAAQAAAAAAAAAAA==

> <PUBCHEM_IUPAC_OPENEYE_NAME>
3-(1H-indol-3-yl)-1-piperazin-4-ium-1-yl-propan-1-one

> <PUBCHEM_IUPAC_CAS_NAME>
3-(1H-indol-3-yl)-1-(1-piperazin-4-iumyl)-1-propanone

> <PUBCHEM_IUPAC_NAME>
3-(1H-indol-3-yl)-1-piperazin-4-ium-1-ylpropan-1-one

> <PUBCHEM_IUPAC_SYSTEMATIC_NAME>
3-(1H-indol-3-yl)-1-piperazin-4-ium-1-yl-propan-1-one

> <PUBCHEM_IUPAC_TRADITIONAL_NAME>
3-(1H-indol-3-yl)-1-piperazin-4-ium-1-yl-propan-1-one

> <PUBCHEM_IUPAC_INCHI>
InChI=1S/C15H19N3O/c19-15(18-9-7-16-8-10-18)6-5-12-11-17-14-4-2-1-3-13(12)14/h1-4,11,16-17H,5-10H2/p+1

> <PUBCHEM_IUPAC_INCHIKEY>
GRXZLAUCZFNHDF-UHFFFAOYSA-O

> <PUBCHEM_XLOGP3>
1

> <PUBCHEM_EXACT_MASS>
258.160637

> <PUBCHEM_MOLECULAR_FORMULA>
C15H20N3O+

> <PUBCHEM_MOLECULAR_WEIGHT>
258.3388

> <PUBCHEM_OPENEYE_CAN_SMILES>
C1CN(CC[NH2+]1)C(=O)CCC2=CNC3=CC=CC=C32

> <PUBCHEM_OPENEYE_ISO_SMILES>
C1CN(CC[NH2+]1)C(=O)CCC2=CNC3=CC=CC=C32

> <PUBCHEM_CACTVS_TPSA>
52.7

> <PUBCHEM_MONOISOTOPIC_WEIGHT>
258.160637

> <PUBCHEM_TOTAL_CHARGE>
1

> <PUBCHEM_HEAVY_ATOM_COUNT>
19

> <PUBCHEM_ATOM_DEF_STEREO_COUNT>
0

> <PUBCHEM_ATOM_UDEF_STEREO_COUNT>
0

> <PUBCHEM_BOND_DEF_STEREO_COUNT>
0

> <PUBCHEM_BOND_UDEF_STEREO_COUNT>
0

> <PUBCHEM_ISOTOPIC_ATOM_COUNT>
0

> <PUBCHEM_COMPONENT_COUNT>
1

> <PUBCHEM_CACTVS_TAUTO_COUNT>
1

> <PUBCHEM_COORDINATE_TYPE>
1
5
255

> <PUBCHEM_BONDANNOTATIONS>
12  13  8
12  15  8
13  14  8
13  16  8
14  17  8
16  18  8
17  19  8
18  19  8
4  14  8
4  15  8

$$$$
42237257
  -OEChem-12041212012D

 35 36  0     0  0  0  0  0  0999 V2000
    5.4641    2.5000    0.0000 I   0  0  0  0  0  0  0  0  0  0  0  0
    4.5981    1.0000    0.0000 O   0  0  0  0  0  0  0  0  0  0  0  0
    2.8660    1.0000    0.0000 N   0  0  0  0  0  0  0  0  0  0  0  0
    2.8660   -3.0000    0.0000 C   0  0  0  0  0  0  0  0  0  0  0  0
    2.8660   -2.0000    0.0000 C   0  0  0  0  0  0  0  0  0  0  0  0
    2.0000   -3.5000    0.0000 C   0  0  0  0  0  0  0  0  0  0  0  0
    3.7321   -1.5000    0.0000 C   0  0  0  0  0  0  0  0  0  0  0  0
    2.0000   -1.5000    0.0000 C   0  0  0  0  0  0  0  0  0  0  0  0
    2.8660    0.0000    0.0000 C   0  0  0  0  0  0  0  0  0  0  0  0
    3.7321   -0.5000    0.0000 C   0  0  0  0  0  0  0  0  0  0  0  0
    2.0000   -0.5000    0.0000 C   0  0  0  0  0  0  0  0  0  0  0  0
    2.0000   -4.5000    0.0000 C   0  0  0  0  0  0  0  0  0  0  0  0
    3.7321    1.5000    0.0000 C   0  0  0  0  0  0  0  0  0  0  0  0
    3.7321    2.5000    0.0000 C   0  0  0  0  0  0  0  0  0  0  0  0
    4.5981    3.0000    0.0000 C   0  0  0  0  0  0  0  0  0  0  0  0
    2.8660    3.0000    0.0000 C   0  0  0  0  0  0  0  0  0  0  0  0
    4.5981    4.0000    0.0000 C   0  0  0  0  0  0  0  0  0  0  0  0
    2.8660    4.0000    0.0000 C   0  0  0  0  0  0  0  0  0  0  0  0
    3.7321    4.5000    0.0000 C   0  0  0  0  0  0  0  0  0  0  0  0
    3.0781   -3.5826    0.0000 H   0  0  0  0  0  0  0  0  0  0  0  0
    3.4766   -2.8923    0.0000 H   0  0  0  0  0  0  0  0  0  0  0  0
    1.7880   -2.9174    0.0000 H   0  0  0  0  0  0  0  0  0  0  0  0
    1.3894   -3.6077    0.0000 H   0  0  0  0  0  0  0  0  0  0  0  0
    4.2690   -1.8100    0.0000 H   0  0  0  0  0  0  0  0  0  0  0  0
    1.4631   -1.8100    0.0000 H   0  0  0  0  0  0  0  0  0  0  0  0
    4.2690   -0.1900    0.0000 H   0  0  0  0  0  0  0  0  0  0  0  0
    1.4631   -0.1900    0.0000 H   0  0  0  0  0  0  0  0  0  0  0  0
    1.3800   -4.5000    0.0000 H   0  0  0  0  0  0  0  0  0  0  0  0
    2.0000   -5.1200    0.0000 H   0  0  0  0  0  0  0  0  0  0  0  0
    2.6200   -4.5000    0.0000 H   0  0  0  0  0  0  0  0  0  0  0  0
    2.3291    1.3100    0.0000 H   0  0  0  0  0  0  0  0  0  0  0  0
    2.3291    2.6900    0.0000 H   0  0  0  0  0  0  0  0  0  0  0  0
    5.1350    4.3100    0.0000 H   0  0  0  0  0  0  0  0  0  0  0  0
    2.3291    4.3100    0.0000 H   0  0  0  0  0  0  0  0  0  0  0  0
    3.7321    5.1200    0.0000 H   0  0  0  0  0  0  0  0  0  0  0  0
  1 15  1  0  0  0  0
  2 13  2  0  0  0  0
  3  9  1  0  0  0  0
  3 13  1  0  0  0  0
  3 31  1  0  0  0  0
  4  5  1  0  0  0  0
  4  6  1  0  0  0  0
  4 20  1  0  0  0  0
  4 21  1  0  0  0  0
  5  7  2  0  0  0  0
  5  8  1  0  0  0  0
  6 12  1  0  0  0  0
  6 22  1  0  0  0  0
  6 23  1  0  0  0  0
  7 10  1  0  0  0  0
  7 24  1  0  0  0  0
  8 11  2  0  0  0  0
  8 25  1  0  0  0  0
  9 10  2  0  0  0  0
  9 11  1  0  0  0  0
 10 26  1  0  0  0  0
 11 27  1  0  0  0  0
 12 28  1  0  0  0  0
 12 29  1  0  0  0  0
 12 30  1  0  0  0  0
 13 14  1  0  0  0  0
 14 15  1  0  0  0  0
 14 16  2  0  0  0  0
 15 17  2  0  0  0  0
 16 18  1  0  0  0  0
 16 32  1  0  0  0  0
 17 19  1  0  0  0  0
 17 33  1  0  0  0  0
 18 19  2  0  0  0  0
 18 34  1  0  0  0  0
 19 35  1  0  0  0  0
M  END
> <PUBCHEM_COMPOUND_CID>
42237257

> <PUBCHEM_COMPOUND_CANONICALIZED>
1

> <PUBCHEM_CACTVS_COMPLEXITY>
287

> <PUBCHEM_CACTVS_HBOND_ACCEPTOR>
1

> <PUBCHEM_CACTVS_HBOND_DONOR>
1

> <PUBCHEM_CACTVS_ROTATABLE_BOND>
4

> <PUBCHEM_CACTVS_SUBSKEYS>
AAADceB6IAAAAgAAAAAAAAAAAAAAAAAAAAAwYAAAAAAAAAABQAAAHgAwAAAADAiDmAAywILAAACIAiVSUACCAAAlAgAIiAEAZMgIIDLAlZGEIQhglADIyYcYiICOCAAAAAAAAAAQAAAAAAAAAAAAAAAAAA==

> <PUBCHEM_IUPAC_OPENEYE_NAME>
2-iodo-N-(4-propylphenyl)benzamide

> <PUBCHEM_IUPAC_CAS_NAME>
2-iodo-N-(4-propylphenyl)benzamide

> <PUBCHEM_IUPAC_NAME>
2-iodo-N-(4-propylphenyl)benzamide

> <PUBCHEM_IUPAC_SYSTEMATIC_NAME>
2-iodanyl-N-(4-propylphenyl)benzamide

> <PUBCHEM_IUPAC_TRADITIONAL_NAME>
2-iodo-N-(4-propylphenyl)benzamide

> <PUBCHEM_IUPAC_INCHI>
InChI=1S/C16H16INO/c1-2-5-12-8-10-13(11-9-12)18-16(19)14-6-3-4-7-15(14)17/h3-4,6-11H,2,5H2,1H3,(H,18,19)

> <PUBCHEM_IUPAC_INCHIKEY>
PNGHKDZCFNSHHV-UHFFFAOYSA-N

> <PUBCHEM_XLOGP3>
4.1

> <PUBCHEM_EXACT_MASS>
365.027662

> <PUBCHEM_MOLECULAR_FORMULA>
C16H16INO

> <PUBCHEM_MOLECULAR_WEIGHT>
365.20881

> <PUBCHEM_OPENEYE_CAN_SMILES>
CCCC1=CC=C(C=C1)NC(=O)C2=CC=CC=C2I

> <PUBCHEM_OPENEYE_ISO_SMILES>
CCCC1=CC=C(C=C1)NC(=O)C2=CC=CC=C2I

> <PUBCHEM_CACTVS_TPSA>
29.1

> <PUBCHEM_MONOISOTOPIC_WEIGHT>
365.027662

> <PUBCHEM_TOTAL_CHARGE>
0

> <PUBCHEM_HEAVY_ATOM_COUNT>
19

> <PUBCHEM_ATOM_DEF_STEREO_COUNT>
0

> <PUBCHEM_ATOM_UDEF_STEREO_COUNT>
0

> <PUBCHEM_BOND_DEF_STEREO_COUNT>
0

> <PUBCHEM_BOND_UDEF_STEREO_COUNT>
0

> <PUBCHEM_ISOTOPIC_ATOM_COUNT>
0

> <PUBCHEM_COMPONENT_COUNT>
1

> <PUBCHEM_CACTVS_TAUTO_COUNT>
2

> <PUBCHEM_COORDINATE_TYPE>
1
5
255

> <PUBCHEM_BONDANNOTATIONS>
14  15  8
14  16  8
15  17  8
16  18  8
17  19  8
18  19  8
5  7  8
5  8  8
7  10  8
8  11  8
9  10  8
9  11  8

$$$$
42249955
  -OEChem-12041212022D

 24 24  0     0  0  0  0  0  0999 V2000
    2.0000   -2.3100    0.0000 Cl  0  0  0  0  0  0  0  0  0  0  0  0
    3.7320    1.6900    0.0000 N   0  3  0  0  0  0  0  0  0  0  0  0
    3.7320    0.6900    0.0000 C   0  0  0  0  0  0  0  0  0  0  0  0
    3.7320   -0.3100    0.0000 C   0  0  0  0  0  0  0  0  0  0  0  0
    4.7320    0.6900    0.0000 C   0  0  0  0  0  0  0  0  0  0  0  0
    2.7320    0.6900    0.0000 C   0  0  0  0  0  0  0  0  0  0  0  0
    2.8660   -0.8100    0.0000 C   0  0  0  0  0  0  0  0  0  0  0  0
    4.5981   -0.8100    0.0000 C   0  0  0  0  0  0  0  0  0  0  0  0
    2.8660   -1.8100    0.0000 C   0  0  0  0  0  0  0  0  0  0  0  0
    4.5981   -1.8100    0.0000 C   0  0  0  0  0  0  0  0  0  0  0  0
    3.7320   -2.3100    0.0000 C   0  0  0  0  0  0  0  0  0  0  0  0
    3.7320    2.3100    0.0000 H   0  0  0  0  0  0  0  0  0  0  0  0
    4.3520    1.6900    0.0000 H   0  0  0  0  0  0  0  0  0  0  0  0
    3.1120    1.6900    0.0000 H   0  0  0  0  0  0  0  0  0  0  0  0
    2.7320    1.3100    0.0000 H   0  0  0  0  0  0  0  0  0  0  0  0
    2.1120    0.6900    0.0000 H   0  0  0  0  0  0  0  0  0  0  0  0
    2.7320    0.0700    0.0000 H   0  0  0  0  0  0  0  0  0  0  0  0
    4.7320    0.0700    0.0000 H   0  0  0  0  0  0  0  0  0  0  0  0
    5.3520    0.6900    0.0000 H   0  0  0  0  0  0  0  0  0  0  0  0
    4.7320    1.3100    0.0000 H   0  0  0  0  0  0  0  0  0  0  0  0
    2.3291   -0.5000    0.0000 H   0  0  0  0  0  0  0  0  0  0  0  0
    5.1350   -0.5000    0.0000 H   0  0  0  0  0  0  0  0  0  0  0  0
    5.1350   -2.1200    0.0000 H   0  0  0  0  0  0  0  0  0  0  0  0
    3.7320   -2.9300    0.0000 H   0  0  0  0  0  0  0  0  0  0  0  0
  1  9  1  0  0  0  0
  2  3  1  0  0  0  0
  2 12  1  0  0  0  0
  2 13  1  0  0  0  0
  2 14  1  0  0  0  0
  3  4  1  0  0  0  0
  3  5  1  0  0  0  0
  3  6  1  0  0  0  0
  4  7  2  0  0  0  0
  4  8  1  0  0  0  0
  5 18  1  0  0  0  0
  5 19  1  0  0  0  0
  5 20  1  0  0  0  0
  6 15  1  0  0  0  0
  6 16  1  0  0  0  0
  6 17  1  0  0  0  0
  7  9  1  0  0  0  0
  7 21  1  0  0  0  0
  8 10  2  0  0  0  0
  8 22  1  0  0  0  0
  9 11  2  0  0  0  0
 10 11  1  0  0  0  0
 10 23  1  0  0  0  0
 11 24  1  0  0  0  0
M  CHG  1   2   1
M  END
> <PUBCHEM_COMPOUND_CID>
42249955

> <PUBCHEM_COMPOUND_CANONICALIZED>
1

> <PUBCHEM_CACTVS_COMPLEXITY>
134

> <PUBCHEM_CACTVS_HBOND_ACCEPTOR>
0

> <PUBCHEM_CACTVS_HBOND_DONOR>
1

> <PUBCHEM_CACTVS_ROTATABLE_BOND>
1

> <PUBCHEM_CACTVS_SUBSKEYS>
AAADccByAAAEAAAAAAAAAAAAAAAAAAAAAAAwAAAAAAAAAAABAAAAHAIQAAAADIqBGCAyAIBAAACAAiBCAACCAAAgBQAIiAAABogIICKBkxGAIABgkAAIiAcQgMAOgAAAIAAAAAAAAABAAAAAAAAAAAAAAA==

> <PUBCHEM_IUPAC_OPENEYE_NAME>
[1-(3-chlorophenyl)-1-methyl-ethyl]ammonium

> <PUBCHEM_IUPAC_CAS_NAME>
2-(3-chlorophenyl)propan-2-ylammonium

> <PUBCHEM_IUPAC_NAME>
2-(3-chlorophenyl)propan-2-ylazanium

> <PUBCHEM_IUPAC_SYSTEMATIC_NAME>
2-(3-chlorophenyl)propan-2-ylazanium

> <PUBCHEM_IUPAC_TRADITIONAL_NAME>
[1-(3-chlorophenyl)-1-methyl-ethyl]ammonium

> <PUBCHEM_IUPAC_INCHI>
InChI=1S/C9H12ClN/c1-9(2,11)7-4-3-5-8(10)6-7/h3-6H,11H2,1-2H3/p+1

> <PUBCHEM_IUPAC_INCHIKEY>
RJFOLCUYDLFKFW-UHFFFAOYSA-O

> <PUBCHEM_XLOGP3>
2.4

> <PUBCHEM_EXACT_MASS>
170.073652

> <PUBCHEM_MOLECULAR_FORMULA>
C9H13ClN+

> <PUBCHEM_MOLECULAR_WEIGHT>
170.65922

> <PUBCHEM_OPENEYE_CAN_SMILES>
CC(C)(C1=CC(=CC=C1)Cl)[NH3+]

> <PUBCHEM_OPENEYE_ISO_SMILES>
CC(C)(C1=CC(=CC=C1)Cl)[NH3+]

> <PUBCHEM_CACTVS_TPSA>
27.6

> <PUBCHEM_MONOISOTOPIC_WEIGHT>
170.073652

> <PUBCHEM_TOTAL_CHARGE>
1

> <PUBCHEM_HEAVY_ATOM_COUNT>
11

> <PUBCHEM_ATOM_DEF_STEREO_COUNT>
0

> <PUBCHEM_ATOM_UDEF_STEREO_COUNT>
0

> <PUBCHEM_BOND_DEF_STEREO_COUNT>
0

> <PUBCHEM_BOND_UDEF_STEREO_COUNT>
0

> <PUBCHEM_ISOTOPIC_ATOM_COUNT>
0

> <PUBCHEM_COMPONENT_COUNT>
1

> <PUBCHEM_CACTVS_TAUTO_COUNT>
1

> <PUBCHEM_COORDINATE_TYPE>
1
5
255

> <PUBCHEM_BONDANNOTATIONS>
10  11  8
4  7  8
4  8  8
7  9  8
8  10  8
9  11  8

$$$$
