65281682
  -OEChem-11301218262D

 42 44  0     0  0  0  0  0  0999 V2000
    4.3211    1.5209    0.0000 O   0  0  0  0  0  0  0  0  0  0  0  0
    5.9674    0.9828    0.0000 N   0  0  0  0  0  0  0  0  0  0  0  0
    4.6783   -1.7834    0.0000 N   0  0  0  0  0  0  0  0  0  0  0  0
    8.2141    0.9453    0.0000 C   0  0  0  0  0  0  0  0  0  0  0  0
    8.0079    1.9238    0.0000 C   0  0  0  0  0  0  0  0  0  0  0  0
    7.5776    0.1740    0.0000 C   0  0  0  0  0  0  0  0  0  0  0  0
    7.1143    2.3727    0.0000 C   0  0  0  0  0  0  0  0  0  0  0  0
    6.5778    0.1907    0.0000 C   0  0  0  0  0  0  0  0  0  0  0  0
    6.2062    1.9539    0.0000 C   0  0  0  0  0  0  0  0  0  0  0  0
    9.1926    1.1516    0.0000 C   0  0  0  0  0  0  0  0  0  0  0  0
    8.9854    0.3089    0.0000 C   0  0  0  0  0  0  0  0  0  0  0  0
    4.9889    0.7766    0.0000 C   0  0  0  0  0  0  0  0  0  0  0  0
    4.6783   -0.1739    0.0000 C   0  0  0  0  0  0  0  0  0  0  0  0
    3.7320   -0.4786    0.0000 C   0  0  0  0  0  0  0  0  0  0  0  0
    5.2619   -0.9786    0.0000 C   0  0  0  0  0  0  0  0  0  0  0  0
    3.7320   -1.4786    0.0000 C   0  0  0  0  0  0  0  0  0  0  0  0
    2.8660    0.0214    0.0000 C   0  0  0  0  0  0  0  0  0  0  0  0
    2.8660   -1.9786    0.0000 C   0  0  0  0  0  0  0  0  0  0  0  0
    2.0000   -0.4786    0.0000 C   0  0  0  0  0  0  0  0  0  0  0  0
    2.0000   -1.4786    0.0000 C   0  0  0  0  0  0  0  0  0  0  0  0
    8.6278    1.9135    0.0000 H   0  0  0  0  0  0  0  0  0  0  0  0
    8.1559    2.5259    0.0000 H   0  0  0  0  0  0  0  0  0  0  0  0
    7.4296   -0.4281    0.0000 H   0  0  0  0  0  0  0  0  0  0  0  0
    8.1317   -0.1043    0.0000 H   0  0  0  0  0  0  0  0  0  0  0  0
    7.5089    2.8509    0.0000 H   0  0  0  0  0  0  0  0  0  0  0  0
    6.7359    2.8638    0.0000 H   0  0  0  0  0  0  0  0  0  0  0  0
    6.0148   -0.0689    0.0000 H   0  0  0  0  0  0  0  0  0  0  0  0
    6.7056   -0.4160    0.0000 H   0  0  0  0  0  0  0  0  0  0  0  0
    6.0783    2.5606    0.0000 H   0  0  0  0  0  0  0  0  0  0  0  0
    5.5863    1.9643    0.0000 H   0  0  0  0  0  0  0  0  0  0  0  0
    9.3205    0.5449    0.0000 H   0  0  0  0  0  0  0  0  0  0  0  0
    8.5908   -0.1693    0.0000 H   0  0  0  0  0  0  0  0  0  0  0  0
    9.4636   -0.0857    0.0000 H   0  0  0  0  0  0  0  0  0  0  0  0
    9.7993    1.2794    0.0000 H   0  0  0  0  0  0  0  0  0  0  0  0
    9.3800    0.7871    0.0000 H   0  0  0  0  0  0  0  0  0  0  0  0
    9.0648    1.7582    0.0000 H   0  0  0  0  0  0  0  0  0  0  0  0
    5.8819   -0.9786    0.0000 H   0  0  0  0  0  0  0  0  0  0  0  0
    4.8709   -2.3727    0.0000 H   0  0  0  0  0  0  0  0  0  0  0  0
    2.8660    0.6414    0.0000 H   0  0  0  0  0  0  0  0  0  0  0  0
    2.8660   -2.5986    0.0000 H   0  0  0  0  0  0  0  0  0  0  0  0
    1.4631   -0.1686    0.0000 H   0  0  0  0  0  0  0  0  0  0  0  0
    1.4631   -1.7886    0.0000 H   0  0  0  0  0  0  0  0  0  0  0  0
  1 12  2  0  0  0  0
  2  8  1  0  0  0  0
  2  9  1  0  0  0  0
  2 12  1  0  0  0  0
  3 15  1  0  0  0  0
  3 16  1  0  0  0  0
  3 38  1  0  0  0  0
  4  5  1  0  0  0  0
  4  6  1  0  0  0  0
  4 10  1  0  0  0  0
  4 11  1  0  0  0  0
  5  7  1  0  0  0  0
  5 21  1  0  0  0  0
  5 22  1  0  0  0  0
  6  8  1  0  0  0  0
  6 23  1  0  0  0  0
  6 24  1  0  0  0  0
  7  9  1  0  0  0  0
  7 25  1  0  0  0  0
  7 26  1  0  0  0  0
  8 27  1  0  0  0  0
  8 28  1  0  0  0  0
  9 29  1  0  0  0  0
  9 30  1  0  0  0  0
 10 31  1  0  0  0  0
 10 34  1  0  0  0  0
 10 36  1  0  0  0  0
 11 32  1  0  0  0  0
 11 33  1  0  0  0  0
 11 35  1  0  0  0  0
 12 13  1  0  0  0  0
 13 14  1  0  0  0  0
 13 15  2  0  0  0  0
 14 16  1  0  0  0  0
 14 17  2  0  0  0  0
 15 37  1  0  0  0  0
 16 18  2  0  0  0  0
 17 19  1  0  0  0  0
 17 39  1  0  0  0  0
 18 20  1  0  0  0  0
 18 40  1  0  0  0  0
 19 20  2  0  0  0  0
 19 41  1  0  0  0  0
 20 42  1  0  0  0  0
M  END
> <PUBCHEM_COMPOUND_CID>
65281682

> <PUBCHEM_COMPOUND_CANONICALIZED>
1

> <PUBCHEM_CACTVS_COMPLEXITY>
366

> <PUBCHEM_CACTVS_HBOND_ACCEPTOR>
1

> <PUBCHEM_CACTVS_HBOND_DONOR>
1

> <PUBCHEM_CACTVS_ROTATABLE_BOND>
1

> <PUBCHEM_CACTVS_SUBSKEYS>
AAADceB7IAAAAAAAAAAAAAAAAAAAAWAAAAAwAAAABYAAAFgB8AAAHgAQAAAADgjBngQ+wPPJkACoAzV3VACCgCA1AiAI2aE4ZNgIIPrA1ZGEIYhglgDIyccciMCPgAAAAAACAAAAAAAAAAQAAAAAAAAAAA==

> <PUBCHEM_IUPAC_OPENEYE_NAME>
(4,4-dimethylazepan-1-yl)-(1H-indol-3-yl)methanone

> <PUBCHEM_IUPAC_CAS_NAME>
(4,4-dimethyl-1-azepanyl)-(1H-indol-3-yl)methanone

> <PUBCHEM_IUPAC_NAME>
(4,4-dimethylazepan-1-yl)-(1H-indol-3-yl)methanone

> <PUBCHEM_IUPAC_SYSTEMATIC_NAME>
(4,4-dimethylazepan-1-yl)-(1H-indol-3-yl)methanone

> <PUBCHEM_IUPAC_TRADITIONAL_NAME>
(4,4-dimethylazepan-1-yl)-(1H-indol-3-yl)methanone

> <PUBCHEM_IUPAC_INCHI>
InChI=1S/C17H22N2O/c1-17(2)8-5-10-19(11-9-17)16(20)14-12-18-15-7-4-3-6-13(14)15/h3-4,6-7,12,18H,5,8-11H2,1-2H3

> <PUBCHEM_IUPAC_INCHIKEY>
RSPXRVGUDCCJIP-UHFFFAOYSA-N

> <PUBCHEM_XLOGP3>
4

> <PUBCHEM_EXACT_MASS>
270.173213

> <PUBCHEM_MOLECULAR_FORMULA>
C17H22N2O

> <PUBCHEM_MOLECULAR_WEIGHT>
270.36938

> <PUBCHEM_OPENEYE_CAN_SMILES>
CC1(CCCN(CC1)C(=O)C2=CNC3=CC=CC=C32)C

> <PUBCHEM_OPENEYE_ISO_SMILES>
CC1(CCCN(CC1)C(=O)C2=CNC3=CC=CC=C32)C

> <PUBCHEM_CACTVS_TPSA>
36.1

> <PUBCHEM_MONOISOTOPIC_WEIGHT>
270.173213

> <PUBCHEM_TOTAL_CHARGE>
0

> <PUBCHEM_HEAVY_ATOM_COUNT>
20

> <PUBCHEM_ATOM_DEF_STEREO_COUNT>
0

> <PUBCHEM_ATOM_UDEF_STEREO_COUNT>
0

> <PUBCHEM_BOND_DEF_STEREO_COUNT>
0

> <PUBCHEM_BOND_UDEF_STEREO_COUNT>
0

> <PUBCHEM_ISOTOPIC_ATOM_COUNT>
0

> <PUBCHEM_COMPONENT_COUNT>
1

> <PUBCHEM_CACTVS_TAUTO_COUNT>
3

> <PUBCHEM_COORDINATE_TYPE>
1
5
255

> <PUBCHEM_BONDANNOTATIONS>
13  14  8
13  15  8
14  16  8
14  17  8
16  18  8
17  19  8
18  20  8
19  20  8
3  15  8
3  16  8

$$$$
65281779
  -OEChem-11301218262D

 45 47  0     0  0  0  0  0  0999 V2000
    6.6353   -0.9805    0.0000 O   0  0  0  0  0  0  0  0  0  0  0  0
    6.2781    0.7143    0.0000 N   0  0  0  0  0  0  0  0  0  0  0  0
    4.6783   -3.0024    0.0000 N   0  0  0  0  0  0  0  0  0  0  0  0
    7.4339    2.6412    0.0000 C   0  0  0  0  0  0  0  0  0  0  0  0
    6.4834    2.9519    0.0000 C   0  0  0  0  0  0  0  0  0  0  0  0
    7.7837    1.7044    0.0000 C   0  0  0  0  0  0  0  0  0  0  0  0
    5.6479    2.4024    0.0000 C   0  0  0  0  0  0  0  0  0  0  0  0
    7.2693    0.8468    0.0000 C   0  0  0  0  0  0  0  0  0  0  0  0
    5.5565    1.4066    0.0000 C   0  0  0  0  0  0  0  0  0  0  0  0
    7.7446    3.5917    0.0000 C   0  0  0  0  0  0  0  0  0  0  0  0
    8.3707    2.9910    0.0000 C   0  0  0  0  0  0  0  0  0  0  0  0
    5.9674   -0.2362    0.0000 C   0  0  0  0  0  0  0  0  0  0  0  0
    4.9889   -0.4424    0.0000 C   0  0  0  0  0  0  0  0  0  0  0  0
    4.6783   -1.3930    0.0000 C   0  0  0  0  0  0  0  0  0  0  0  0
    3.7320   -1.6977    0.0000 C   0  0  0  0  0  0  0  0  0  0  0  0
    5.2619   -2.1977    0.0000 C   0  0  0  0  0  0  0  0  0  0  0  0
    3.7320   -2.6977    0.0000 C   0  0  0  0  0  0  0  0  0  0  0  0
    2.8660   -1.1977    0.0000 C   0  0  0  0  0  0  0  0  0  0  0  0
    2.8660   -3.1977    0.0000 C   0  0  0  0  0  0  0  0  0  0  0  0
    2.0000   -1.6977    0.0000 C   0  0  0  0  0  0  0  0  0  0  0  0
    2.0000   -2.6977    0.0000 C   0  0  0  0  0  0  0  0  0  0  0  0
    6.8023    3.4836    0.0000 H   0  0  0  0  0  0  0  0  0  0  0  0
    6.0360    3.3811    0.0000 H   0  0  0  0  0  0  0  0  0  0  0  0
    8.2311    1.2752    0.0000 H   0  0  0  0  0  0  0  0  0  0  0  0
    8.3017    2.0450    0.0000 H   0  0  0  0  0  0  0  0  0  0  0  0
    5.4310    2.9833    0.0000 H   0  0  0  0  0  0  0  0  0  0  0  0
    5.0333    2.3203    0.0000 H   0  0  0  0  0  0  0  0  0  0  0  0
    7.2126    0.2294    0.0000 H   0  0  0  0  0  0  0  0  0  0  0  0
    7.8586    0.6542    0.0000 H   0  0  0  0  0  0  0  0  0  0  0  0
    4.9672    1.5992    0.0000 H   0  0  0  0  0  0  0  0  0  0  0  0
    5.2376    0.8749    0.0000 H   0  0  0  0  0  0  0  0  0  0  0  0
    8.3339    3.3991    0.0000 H   0  0  0  0  0  0  0  0  0  0  0  0
    8.5876    2.4101    0.0000 H   0  0  0  0  0  0  0  0  0  0  0  0
    7.9372    4.1811    0.0000 H   0  0  0  0  0  0  0  0  0  0  0  0
    7.1552    3.7844    0.0000 H   0  0  0  0  0  0  0  0  0  0  0  0
    8.9516    3.2078    0.0000 H   0  0  0  0  0  0  0  0  0  0  0  0
    8.1539    3.5718    0.0000 H   0  0  0  0  0  0  0  0  0  0  0  0
    4.9684    0.1772    0.0000 H   0  0  0  0  0  0  0  0  0  0  0  0
    4.3751   -0.3551    0.0000 H   0  0  0  0  0  0  0  0  0  0  0  0
    5.8819   -2.1977    0.0000 H   0  0  0  0  0  0  0  0  0  0  0  0
    4.8709   -3.5917    0.0000 H   0  0  0  0  0  0  0  0  0  0  0  0
    2.8660   -0.5777    0.0000 H   0  0  0  0  0  0  0  0  0  0  0  0
    2.8660   -3.8177    0.0000 H   0  0  0  0  0  0  0  0  0  0  0  0
    1.4631   -1.3877    0.0000 H   0  0  0  0  0  0  0  0  0  0  0  0
    1.4631   -3.0077    0.0000 H   0  0  0  0  0  0  0  0  0  0  0  0
  1 12  2  0  0  0  0
  2  8  1  0  0  0  0
  2  9  1  0  0  0  0
  2 12  1  0  0  0  0
  3 16  1  0  0  0  0
  3 17  1  0  0  0  0
  3 41  1  0  0  0  0
  4  5  1  0  0  0  0
  4  6  1  0  0  0  0
  4 10  1  0  0  0  0
  4 11  1  0  0  0  0
  5  7  1  0  0  0  0
  5 22  1  0  0  0  0
  5 23  1  0  0  0  0
  6  8  1  0  0  0  0
  6 24  1  0  0  0  0
  6 25  1  0  0  0  0
  7  9  1  0  0  0  0
  7 26  1  0  0  0  0
  7 27  1  0  0  0  0
  8 28  1  0  0  0  0
  8 29  1  0  0  0  0
  9 30  1  0  0  0  0
  9 31  1  0  0  0  0
 10 32  1  0  0  0  0
 10 34  1  0  0  0  0
 10 35  1  0  0  0  0
 11 33  1  0  0  0  0
 11 36  1  0  0  0  0
 11 37  1  0  0  0  0
 12 13  1  0  0  0  0
 13 14  1  0  0  0  0
 13 38  1  0  0  0  0
 13 39  1  0  0  0  0
 14 15  1  0  0  0  0
 14 16  2  0  0  0  0
 15 17  1  0  0  0  0
 15 18  2  0  0  0  0
 16 40  1  0  0  0  0
 17 19  2  0  0  0  0
 18 20  1  0  0  0  0
 18 42  1  0  0  0  0
 19 21  1  0  0  0  0
 19 43  1  0  0  0  0
 20 21  2  0  0  0  0
 20 44  1  0  0  0  0
 21 45  1  0  0  0  0
M  END
> <PUBCHEM_COMPOUND_CID>
65281779

> <PUBCHEM_COMPOUND_CANONICALIZED>
1

> <PUBCHEM_CACTVS_COMPLEXITY>
379

> <PUBCHEM_CACTVS_HBOND_ACCEPTOR>
1

> <PUBCHEM_CACTVS_HBOND_DONOR>
1

> <PUBCHEM_CACTVS_ROTATABLE_BOND>
2

> <PUBCHEM_CACTVS_SUBSKEYS>
AAADceB7IAAAAAAAAAAAAAAAAAAAAWAAAAAwAAAABYAAAFgB8AAAHgAQAAAADgjBngQ+wPPJkACoAzV3VACCgCAxAiAI2aE4ZJgIIPLAlZGEIAhglgDIyAccicCfgAAAAAACAAAAAAAAAAQAAAAAAAAAAA==

> <PUBCHEM_IUPAC_OPENEYE_NAME>
1-(4,4-dimethylazepan-1-yl)-2-(1H-indol-3-yl)ethanone

> <PUBCHEM_IUPAC_CAS_NAME>
1-(4,4-dimethyl-1-azepanyl)-2-(1H-indol-3-yl)ethanone

> <PUBCHEM_IUPAC_NAME>
1-(4,4-dimethylazepan-1-yl)-2-(1H-indol-3-yl)ethanone

> <PUBCHEM_IUPAC_SYSTEMATIC_NAME>
1-(4,4-dimethylazepan-1-yl)-2-(1H-indol-3-yl)ethanone

> <PUBCHEM_IUPAC_TRADITIONAL_NAME>
1-(4,4-dimethylazepan-1-yl)-2-(1H-indol-3-yl)ethanone

> <PUBCHEM_IUPAC_INCHI>
InChI=1S/C18H24N2O/c1-18(2)8-5-10-20(11-9-18)17(21)12-14-13-19-16-7-4-3-6-15(14)16/h3-4,6-7,13,19H,5,8-12H2,1-2H3

> <PUBCHEM_IUPAC_INCHIKEY>
ZLNGNTCFUQIUFG-UHFFFAOYSA-N

> <PUBCHEM_XLOGP3>
3.4

> <PUBCHEM_EXACT_MASS>
284.188863

> <PUBCHEM_MOLECULAR_FORMULA>
C18H24N2O

> <PUBCHEM_MOLECULAR_WEIGHT>
284.39596

> <PUBCHEM_OPENEYE_CAN_SMILES>
CC1(CCCN(CC1)C(=O)CC2=CNC3=CC=CC=C32)C

> <PUBCHEM_OPENEYE_ISO_SMILES>
CC1(CCCN(CC1)C(=O)CC2=CNC3=CC=CC=C32)C

> <PUBCHEM_CACTVS_TPSA>
36.1

> <PUBCHEM_MONOISOTOPIC_WEIGHT>
284.188863

> <PUBCHEM_TOTAL_CHARGE>
0

> <PUBCHEM_HEAVY_ATOM_COUNT>
21

> <PUBCHEM_ATOM_DEF_STEREO_COUNT>
0

> <PUBCHEM_ATOM_UDEF_STEREO_COUNT>
0

> <PUBCHEM_BOND_DEF_STEREO_COUNT>
0

> <PUBCHEM_BOND_UDEF_STEREO_COUNT>
0

> <PUBCHEM_ISOTOPIC_ATOM_COUNT>
0

> <PUBCHEM_COMPONENT_COUNT>
1

> <PUBCHEM_CACTVS_TAUTO_COUNT>
1

> <PUBCHEM_COORDINATE_TYPE>
1
5
255

> <PUBCHEM_BONDANNOTATIONS>
14  15  8
14  16  8
15  17  8
15  18  8
17  19  8
18  20  8
19  21  8
20  21  8
3  16  8
3  17  8

$$$$
65282019
  -OEChem-11301218262D

 42 44  0     0  0  0  0  0  0999 V2000
    6.8101    1.1083    0.0000 O   0  0  0  0  0  0  0  0  0  0  0  0
    5.0780    1.1083    0.0000 N   0  0  0  0  0  0  0  0  0  0  0  0
    7.7563   -2.1964    0.0000 N   0  0  0  0  0  0  0  0  0  0  0  0
    2.9309    1.7706    0.0000 C   0  0  0  0  0  0  0  0  0  0  0  0
    3.4309    2.6367    0.0000 C   0  0  0  0  0  0  0  0  0  0  0  0
    3.2962    0.8398    0.0000 C   0  0  0  0  0  0  0  0  0  0  0  0
    4.4197    2.7857    0.0000 C   0  0  0  0  0  0  0  0  0  0  0  0
    4.2518    0.5450    0.0000 C   0  0  0  0  0  0  0  0  0  0  0  0
    5.1528    2.1055    0.0000 C   0  0  0  0  0  0  0  0  0  0  0  0
    2.0648    2.2706    0.0000 C   0  0  0  0  0  0  0  0  0  0  0  0
    2.0000    1.4053    0.0000 C   0  0  0  0  0  0  0  0  0  0  0  0
    5.9440    0.6083    0.0000 C   0  0  0  0  0  0  0  0  0  0  0  0
    5.9440   -0.3917    0.0000 C   0  0  0  0  0  0  0  0  0  0  0  0
    6.8101   -0.8917    0.0000 C   0  0  0  0  0  0  0  0  0  0  0  0
    5.0780   -0.8917    0.0000 C   0  0  0  0  0  0  0  0  0  0  0  0
    6.8101   -1.8917    0.0000 C   0  0  0  0  0  0  0  0  0  0  0  0
    7.7563   -0.5869    0.0000 C   0  0  0  0  0  0  0  0  0  0  0  0
    5.0780   -1.8917    0.0000 C   0  0  0  0  0  0  0  0  0  0  0  0
    5.9440   -2.3917    0.0000 C   0  0  0  0  0  0  0  0  0  0  0  0
    8.3399   -1.3917    0.0000 C   0  0  0  0  0  0  0  0  0  0  0  0
    3.4772    3.2549    0.0000 H   0  0  0  0  0  0  0  0  0  0  0  0
    2.8384    2.8194    0.0000 H   0  0  0  0  0  0  0  0  0  0  0  0
    2.6831    0.7474    0.0000 H   0  0  0  0  0  0  0  0  0  0  0  0
    3.2499    0.2215    0.0000 H   0  0  0  0  0  0  0  0  0  0  0  0
    4.9320    3.1350    0.0000 H   0  0  0  0  0  0  0  0  0  0  0  0
    4.1932    3.3629    0.0000 H   0  0  0  0  0  0  0  0  0  0  0  0
    3.9418    0.0081    0.0000 H   0  0  0  0  0  0  0  0  0  0  0  0
    4.7063    0.1233    0.0000 H   0  0  0  0  0  0  0  0  0  0  0  0
    5.7452    1.9228    0.0000 H   0  0  0  0  0  0  0  0  0  0  0  0
    5.4628    2.6425    0.0000 H   0  0  0  0  0  0  0  0  0  0  0  0
    2.3748    2.8076    0.0000 H   0  0  0  0  0  0  0  0  0  0  0  0
    1.7735    1.9824    0.0000 H   0  0  0  0  0  0  0  0  0  0  0  0
    1.4229    1.1788    0.0000 H   0  0  0  0  0  0  0  0  0  0  0  0
    1.5279    2.5806    0.0000 H   0  0  0  0  0  0  0  0  0  0  0  0
    2.2265    0.8282    0.0000 H   0  0  0  0  0  0  0  0  0  0  0  0
    1.7548    1.7337    0.0000 H   0  0  0  0  0  0  0  0  0  0  0  0
    4.5411   -0.5817    0.0000 H   0  0  0  0  0  0  0  0  0  0  0  0
    7.9489    0.0024    0.0000 H   0  0  0  0  0  0  0  0  0  0  0  0
    4.5411   -2.2017    0.0000 H   0  0  0  0  0  0  0  0  0  0  0  0
    5.9440   -3.0117    0.0000 H   0  0  0  0  0  0  0  0  0  0  0  0
    7.9489   -2.7857    0.0000 H   0  0  0  0  0  0  0  0  0  0  0  0
    8.9599   -1.3917    0.0000 H   0  0  0  0  0  0  0  0  0  0  0  0
  1 12  2  0  0  0  0
  2  8  1  0  0  0  0
  2  9  1  0  0  0  0
  2 12  1  0  0  0  0
  3 16  1  0  0  0  0
  3 20  1  0  0  0  0
  3 41  1  0  0  0  0
  4  5  1  0  0  0  0
  4  6  1  0  0  0  0
  4 10  1  0  0  0  0
  4 11  1  0  0  0  0
  5  7  1  0  0  0  0
  5 21  1  0  0  0  0
  5 22  1  0  0  0  0
  6  8  1  0  0  0  0
  6 23  1  0  0  0  0
  6 24  1  0  0  0  0
  7  9  1  0  0  0  0
  7 25  1  0  0  0  0
  7 26  1  0  0  0  0
  8 27  1  0  0  0  0
  8 28  1  0  0  0  0
  9 29  1  0  0  0  0
  9 30  1  0  0  0  0
 10 31  1  0  0  0  0
 10 34  1  0  0  0  0
 10 36  1  0  0  0  0
 11 32  1  0  0  0  0
 11 33  1  0  0  0  0
 11 35  1  0  0  0  0
 12 13  1  0  0  0  0
 13 14  2  0  0  0  0
 13 15  1  0  0  0  0
 14 16  1  0  0  0  0
 14 17  1  0  0  0  0
 15 18  2  0  0  0  0
 15 37  1  0  0  0  0
 16 19  2  0  0  0  0
 17 20  2  0  0  0  0
 17 38  1  0  0  0  0
 18 19  1  0  0  0  0
 18 39  1  0  0  0  0
 19 40  1  0  0  0  0
 20 42  1  0  0  0  0
M  END
> <PUBCHEM_COMPOUND_CID>
65282019

> <PUBCHEM_COMPOUND_CANONICALIZED>
1

> <PUBCHEM_CACTVS_COMPLEXITY>
366

> <PUBCHEM_CACTVS_HBOND_ACCEPTOR>
1

> <PUBCHEM_CACTVS_HBOND_DONOR>
1

> <PUBCHEM_CACTVS_ROTATABLE_BOND>
1

> <PUBCHEM_CACTVS_SUBSKEYS>
AAADceB7IAAAAAAAAAAAAAAAAAAAAWAAAAAwAAAABYAAAFgB8AAAHgAQAAAADgjBngQ+wPPJkACoAzV3VACCgCA1AiAI2aE4ZNgIIPLAlZGEIQhglgDIyYcciYCPgAAAQAASAAAAAACAACQAAAAAAAAAAA==

> <PUBCHEM_IUPAC_OPENEYE_NAME>
(4,4-dimethylazepan-1-yl)-(1H-indol-4-yl)methanone

> <PUBCHEM_IUPAC_CAS_NAME>
(4,4-dimethyl-1-azepanyl)-(1H-indol-4-yl)methanone

> <PUBCHEM_IUPAC_NAME>
(4,4-dimethylazepan-1-yl)-(1H-indol-4-yl)methanone

> <PUBCHEM_IUPAC_SYSTEMATIC_NAME>
(4,4-dimethylazepan-1-yl)-(1H-indol-4-yl)methanone

> <PUBCHEM_IUPAC_TRADITIONAL_NAME>
(4,4-dimethylazepan-1-yl)-(1H-indol-4-yl)methanone

> <PUBCHEM_IUPAC_INCHI>
InChI=1S/C17H22N2O/c1-17(2)8-4-11-19(12-9-17)16(20)14-5-3-6-15-13(14)7-10-18-15/h3,5-7,10,18H,4,8-9,11-12H2,1-2H3

> <PUBCHEM_IUPAC_INCHIKEY>
SGYUNCIFWMHXGR-UHFFFAOYSA-N

> <PUBCHEM_XLOGP3>
3.3

> <PUBCHEM_EXACT_MASS>
270.173213

> <PUBCHEM_MOLECULAR_FORMULA>
C17H22N2O

> <PUBCHEM_MOLECULAR_WEIGHT>
270.36938

> <PUBCHEM_OPENEYE_CAN_SMILES>
CC1(CCCN(CC1)C(=O)C2=C3C=CNC3=CC=C2)C

> <PUBCHEM_OPENEYE_ISO_SMILES>
CC1(CCCN(CC1)C(=O)C2=C3C=CNC3=CC=C2)C

> <PUBCHEM_CACTVS_TPSA>
36.1

> <PUBCHEM_MONOISOTOPIC_WEIGHT>
270.173213

> <PUBCHEM_TOTAL_CHARGE>
0

> <PUBCHEM_HEAVY_ATOM_COUNT>
20

> <PUBCHEM_ATOM_DEF_STEREO_COUNT>
0

> <PUBCHEM_ATOM_UDEF_STEREO_COUNT>
0

> <PUBCHEM_BOND_DEF_STEREO_COUNT>
0

> <PUBCHEM_BOND_UDEF_STEREO_COUNT>
0

> <PUBCHEM_ISOTOPIC_ATOM_COUNT>
0

> <PUBCHEM_COMPONENT_COUNT>
1

> <PUBCHEM_CACTVS_TAUTO_COUNT>
3

> <PUBCHEM_COORDINATE_TYPE>
1
5
255

> <PUBCHEM_BONDANNOTATIONS>
13  14  8
13  15  8
14  16  8
14  17  8
15  18  8
16  19  8
17  20  8
18  19  8
3  16  8
3  20  8

$$$$
65282307
  -OEChem-11301218262D

 42 44  0     0  0  0  0  0  0999 V2000
    6.7619    2.1410    0.0000 O   0  0  0  0  0  0  0  0  0  0  0  0
    6.7619    0.4090    0.0000 N   0  0  0  0  0  0  0  0  0  0  0  0
    4.6783    2.0797    0.0000 N   0  0  0  0  0  0  0  0  0  0  0  0
    7.4242   -1.7382    0.0000 C   0  0  0  0  0  0  0  0  0  0  0  0
    8.2902   -1.2382    0.0000 C   0  0  0  0  0  0  0  0  0  0  0  0
    6.4933   -1.3728    0.0000 C   0  0  0  0  0  0  0  0  0  0  0  0
    8.4393   -0.2493    0.0000 C   0  0  0  0  0  0  0  0  0  0  0  0
    6.1986   -0.4173    0.0000 C   0  0  0  0  0  0  0  0  0  0  0  0
    7.7591    0.4837    0.0000 C   0  0  0  0  0  0  0  0  0  0  0  0
    7.9242   -2.6042    0.0000 C   0  0  0  0  0  0  0  0  0  0  0  0
    7.0588   -2.6690    0.0000 C   0  0  0  0  0  0  0  0  0  0  0  0
    6.2619    1.2750    0.0000 C   0  0  0  0  0  0  0  0  0  0  0  0
    5.2619    1.2750    0.0000 C   0  0  0  0  0  0  0  0  0  0  0  0
    4.6783    0.4703    0.0000 C   0  0  0  0  0  0  0  0  0  0  0  0
    3.7320    1.7750    0.0000 C   0  0  0  0  0  0  0  0  0  0  0  0
    3.7320    0.7750    0.0000 C   0  0  0  0  0  0  0  0  0  0  0  0
    2.8660    2.2750    0.0000 C   0  0  0  0  0  0  0  0  0  0  0  0
    2.8660    0.2750    0.0000 C   0  0  0  0  0  0  0  0  0  0  0  0
    2.0000    1.7750    0.0000 C   0  0  0  0  0  0  0  0  0  0  0  0
    2.0000    0.7750    0.0000 C   0  0  0  0  0  0  0  0  0  0  0  0
    8.4730   -1.8306    0.0000 H   0  0  0  0  0  0  0  0  0  0  0  0
    8.9085   -1.1918    0.0000 H   0  0  0  0  0  0  0  0  0  0  0  0
    5.8750   -1.4192    0.0000 H   0  0  0  0  0  0  0  0  0  0  0  0
    6.4009   -1.9859    0.0000 H   0  0  0  0  0  0  0  0  0  0  0  0
    9.0164   -0.4759    0.0000 H   0  0  0  0  0  0  0  0  0  0  0  0
    8.7885    0.2629    0.0000 H   0  0  0  0  0  0  0  0  0  0  0  0
    5.7768    0.0372    0.0000 H   0  0  0  0  0  0  0  0  0  0  0  0
    5.6616   -0.7273    0.0000 H   0  0  0  0  0  0  0  0  0  0  0  0
    8.2960    0.7937    0.0000 H   0  0  0  0  0  0  0  0  0  0  0  0
    7.5763    1.0762    0.0000 H   0  0  0  0  0  0  0  0  0  0  0  0
    7.3872   -2.9142    0.0000 H   0  0  0  0  0  0  0  0  0  0  0  0
    6.4817   -2.4425    0.0000 H   0  0  0  0  0  0  0  0  0  0  0  0
    6.8323   -3.2462    0.0000 H   0  0  0  0  0  0  0  0  0  0  0  0
    8.2342   -3.1411    0.0000 H   0  0  0  0  0  0  0  0  0  0  0  0
    7.6360   -2.8956    0.0000 H   0  0  0  0  0  0  0  0  0  0  0  0
    8.4611   -2.2942    0.0000 H   0  0  0  0  0  0  0  0  0  0  0  0
    4.8709    2.6690    0.0000 H   0  0  0  0  0  0  0  0  0  0  0  0
    4.8709   -0.1191    0.0000 H   0  0  0  0  0  0  0  0  0  0  0  0
    2.8660    2.8950    0.0000 H   0  0  0  0  0  0  0  0  0  0  0  0
    2.8660   -0.3450    0.0000 H   0  0  0  0  0  0  0  0  0  0  0  0
    1.4631    2.0850    0.0000 H   0  0  0  0  0  0  0  0  0  0  0  0
    1.4631    0.4650    0.0000 H   0  0  0  0  0  0  0  0  0  0  0  0
  1 12  2  0  0  0  0
  2  8  1  0  0  0  0
  2  9  1  0  0  0  0
  2 12  1  0  0  0  0
  3 13  1  0  0  0  0
  3 15  1  0  0  0  0
  3 37  1  0  0  0  0
  4  5  1  0  0  0  0
  4  6  1  0  0  0  0
  4 10  1  0  0  0  0
  4 11  1  0  0  0  0
  5  7  1  0  0  0  0
  5 21  1  0  0  0  0
  5 22  1  0  0  0  0
  6  8  1  0  0  0  0
  6 23  1  0  0  0  0
  6 24  1  0  0  0  0
  7  9  1  0  0  0  0
  7 25  1  0  0  0  0
  7 26  1  0  0  0  0
  8 27  1  0  0  0  0
  8 28  1  0  0  0  0
  9 29  1  0  0  0  0
  9 30  1  0  0  0  0
 10 31  1  0  0  0  0
 10 34  1  0  0  0  0
 10 36  1  0  0  0  0
 11 32  1  0  0  0  0
 11 33  1  0  0  0  0
 11 35  1  0  0  0  0
 12 13  1  0  0  0  0
 13 14  2  0  0  0  0
 14 16  1  0  0  0  0
 14 38  1  0  0  0  0
 15 16  1  0  0  0  0
 15 17  2  0  0  0  0
 16 18  2  0  0  0  0
 17 19  1  0  0  0  0
 17 39  1  0  0  0  0
 18 20  1  0  0  0  0
 18 40  1  0  0  0  0
 19 20  2  0  0  0  0
 19 41  1  0  0  0  0
 20 42  1  0  0  0  0
M  END
> <PUBCHEM_COMPOUND_CID>
65282307

> <PUBCHEM_COMPOUND_CANONICALIZED>
1

> <PUBCHEM_CACTVS_COMPLEXITY>
366

> <PUBCHEM_CACTVS_HBOND_ACCEPTOR>
1

> <PUBCHEM_CACTVS_HBOND_DONOR>
1

> <PUBCHEM_CACTVS_ROTATABLE_BOND>
1

> <PUBCHEM_CACTVS_SUBSKEYS>
AAADceB7IAAAAAAAAAAAAAAAAAAAAWAAAAAwAAAABYAAAFgB8AAAHgAQAAAADgjBngQywPPJkACoAyVyVACCgCAnAiAImSG4ZNgIYPLAlbGUIQhglgDIyYcYiYCfAAAAAAACAAAAAAAAAAQAAAAAAAAAAA==

> <PUBCHEM_IUPAC_OPENEYE_NAME>
(4,4-dimethylazepan-1-yl)-(1H-indol-2-yl)methanone

> <PUBCHEM_IUPAC_CAS_NAME>
(4,4-dimethyl-1-azepanyl)-(1H-indol-2-yl)methanone

> <PUBCHEM_IUPAC_NAME>
(4,4-dimethylazepan-1-yl)-(1H-indol-2-yl)methanone

> <PUBCHEM_IUPAC_SYSTEMATIC_NAME>
(4,4-dimethylazepan-1-yl)-(1H-indol-2-yl)methanone

> <PUBCHEM_IUPAC_TRADITIONAL_NAME>
(4,4-dimethylazepan-1-yl)-(1H-indol-2-yl)methanone

> <PUBCHEM_IUPAC_INCHI>
InChI=1S/C17H22N2O/c1-17(2)8-5-10-19(11-9-17)16(20)15-12-13-6-3-4-7-14(13)18-15/h3-4,6-7,12,18H,5,8-11H2,1-2H3

> <PUBCHEM_IUPAC_INCHIKEY>
LFRFBZBWUKNPIV-UHFFFAOYSA-N

> <PUBCHEM_XLOGP3>
4.3

> <PUBCHEM_EXACT_MASS>
270.173213

> <PUBCHEM_MOLECULAR_FORMULA>
C17H22N2O

> <PUBCHEM_MOLECULAR_WEIGHT>
270.36938

> <PUBCHEM_OPENEYE_CAN_SMILES>
CC1(CCCN(CC1)C(=O)C2=CC3=CC=CC=C3N2)C

> <PUBCHEM_OPENEYE_ISO_SMILES>
CC1(CCCN(CC1)C(=O)C2=CC3=CC=CC=C3N2)C

> <PUBCHEM_CACTVS_TPSA>
36.1

> <PUBCHEM_MONOISOTOPIC_WEIGHT>
270.173213

> <PUBCHEM_TOTAL_CHARGE>
0

> <PUBCHEM_HEAVY_ATOM_COUNT>
20

> <PUBCHEM_ATOM_DEF_STEREO_COUNT>
0

> <PUBCHEM_ATOM_UDEF_STEREO_COUNT>
0

> <PUBCHEM_BOND_DEF_STEREO_COUNT>
0

> <PUBCHEM_BOND_UDEF_STEREO_COUNT>
0

> <PUBCHEM_ISOTOPIC_ATOM_COUNT>
0

> <PUBCHEM_COMPONENT_COUNT>
1

> <PUBCHEM_CACTVS_TAUTO_COUNT>
6

> <PUBCHEM_COORDINATE_TYPE>
1
5
255

> <PUBCHEM_BONDANNOTATIONS>
13  14  8
14  16  8
15  16  8
15  17  8
16  18  8
17  19  8
18  20  8
19  20  8
3  13  8
3  15  8

$$$$
65282355
  -OEChem-11301218262D

 42 44  0     0  0  0  0  0  0999 V2000
    5.3792   -2.0086    0.0000 O   0  0  0  0  0  0  0  0  0  0  0  0
    4.5132   -0.5086    0.0000 N   0  0  0  0  0  0  0  0  0  0  0  0
    8.9235    0.7962    0.0000 N   0  0  0  0  0  0  0  0  0  0  0  0
    2.8660    1.0198    0.0000 C   0  0  0  0  0  0  0  0  0  0  0  0
    2.3660    0.1537    0.0000 C   0  0  0  0  0  0  0  0  0  0  0  0
    3.8549    1.1688    0.0000 C   0  0  0  0  0  0  0  0  0  0  0  0
    2.7314   -0.7771    0.0000 C   0  0  0  0  0  0  0  0  0  0  0  0
    4.5879    0.4886    0.0000 C   0  0  0  0  0  0  0  0  0  0  0  0
    3.6869   -1.0719    0.0000 C   0  0  0  0  0  0  0  0  0  0  0  0
    2.0000    1.5198    0.0000 C   0  0  0  0  0  0  0  0  0  0  0  0
    2.7170    2.0086    0.0000 C   0  0  0  0  0  0  0  0  0  0  0  0
    5.3792   -1.0086    0.0000 C   0  0  0  0  0  0  0  0  0  0  0  0
    6.2452   -0.5086    0.0000 C   0  0  0  0  0  0  0  0  0  0  0  0
    7.1112   -1.0086    0.0000 C   0  0  0  0  0  0  0  0  0  0  0  0
    6.2452    0.4914    0.0000 C   0  0  0  0  0  0  0  0  0  0  0  0
    7.9773   -0.5086    0.0000 C   0  0  0  0  0  0  0  0  0  0  0  0
    7.9773    0.4914    0.0000 C   0  0  0  0  0  0  0  0  0  0  0  0
    7.1112    0.9914    0.0000 C   0  0  0  0  0  0  0  0  0  0  0  0
    8.9235   -0.8133    0.0000 C   0  0  0  0  0  0  0  0  0  0  0  0
    9.5071   -0.0086    0.0000 C   0  0  0  0  0  0  0  0  0  0  0  0
    1.9115    0.5754    0.0000 H   0  0  0  0  0  0  0  0  0  0  0  0
    1.8538   -0.1955    0.0000 H   0  0  0  0  0  0  0  0  0  0  0  0
    4.3671    1.5180    0.0000 H   0  0  0  0  0  0  0  0  0  0  0  0
    3.6283    1.7459    0.0000 H   0  0  0  0  0  0  0  0  0  0  0  0
    2.1183   -0.8696    0.0000 H   0  0  0  0  0  0  0  0  0  0  0  0
    2.6850   -1.3954    0.0000 H   0  0  0  0  0  0  0  0  0  0  0  0
    5.1804    0.3059    0.0000 H   0  0  0  0  0  0  0  0  0  0  0  0
    4.8979    1.0256    0.0000 H   0  0  0  0  0  0  0  0  0  0  0  0
    3.3769   -1.6088    0.0000 H   0  0  0  0  0  0  0  0  0  0  0  0
    4.1414   -1.4936    0.0000 H   0  0  0  0  0  0  0  0  0  0  0  0
    2.3100    2.0567    0.0000 H   0  0  0  0  0  0  0  0  0  0  0  0
    3.3301    2.1010    0.0000 H   0  0  0  0  0  0  0  0  0  0  0  0
    2.6246    2.6217    0.0000 H   0  0  0  0  0  0  0  0  0  0  0  0
    1.4631    1.8298    0.0000 H   0  0  0  0  0  0  0  0  0  0  0  0
    2.1039    1.9162    0.0000 H   0  0  0  0  0  0  0  0  0  0  0  0
    1.6900    0.9828    0.0000 H   0  0  0  0  0  0  0  0  0  0  0  0
    7.1112   -1.6286    0.0000 H   0  0  0  0  0  0  0  0  0  0  0  0
    5.7083    0.8014    0.0000 H   0  0  0  0  0  0  0  0  0  0  0  0
    7.1112    1.6114    0.0000 H   0  0  0  0  0  0  0  0  0  0  0  0
    9.1161   -1.4026    0.0000 H   0  0  0  0  0  0  0  0  0  0  0  0
    9.1161    1.3855    0.0000 H   0  0  0  0  0  0  0  0  0  0  0  0
   10.1271   -0.0086    0.0000 H   0  0  0  0  0  0  0  0  0  0  0  0
  1 12  2  0  0  0  0
  2  8  1  0  0  0  0
  2  9  1  0  0  0  0
  2 12  1  0  0  0  0
  3 17  1  0  0  0  0
  3 20  1  0  0  0  0
  3 41  1  0  0  0  0
  4  5  1  0  0  0  0
  4  6  1  0  0  0  0
  4 10  1  0  0  0  0
  4 11  1  0  0  0  0
  5  7  1  0  0  0  0
  5 21  1  0  0  0  0
  5 22  1  0  0  0  0
  6  8  1  0  0  0  0
  6 23  1  0  0  0  0
  6 24  1  0  0  0  0
  7  9  1  0  0  0  0
  7 25  1  0  0  0  0
  7 26  1  0  0  0  0
  8 27  1  0  0  0  0
  8 28  1  0  0  0  0
  9 29  1  0  0  0  0
  9 30  1  0  0  0  0
 10 31  1  0  0  0  0
 10 34  1  0  0  0  0
 10 36  1  0  0  0  0
 11 32  1  0  0  0  0
 11 33  1  0  0  0  0
 11 35  1  0  0  0  0
 12 13  1  0  0  0  0
 13 14  2  0  0  0  0
 13 15  1  0  0  0  0
 14 16  1  0  0  0  0
 14 37  1  0  0  0  0
 15 18  2  0  0  0  0
 15 38  1  0  0  0  0
 16 17  2  0  0  0  0
 16 19  1  0  0  0  0
 17 18  1  0  0  0  0
 18 39  1  0  0  0  0
 19 20  2  0  0  0  0
 19 40  1  0  0  0  0
 20 42  1  0  0  0  0
M  END
> <PUBCHEM_COMPOUND_CID>
65282355

> <PUBCHEM_COMPOUND_CANONICALIZED>
1

> <PUBCHEM_CACTVS_COMPLEXITY>
366

> <PUBCHEM_CACTVS_HBOND_ACCEPTOR>
1

> <PUBCHEM_CACTVS_HBOND_DONOR>
1

> <PUBCHEM_CACTVS_ROTATABLE_BOND>
1

> <PUBCHEM_CACTVS_SUBSKEYS>
AAADceB7IAAAAAAAAAAAAAAAAAAAAWAAAAAwAAAABYAAAFgB8AAAHgAQAAAADgjBngQ+wPPJkACoAzV3VACCgCA1AiAI2aE4ZNgIIPLAlZGEIQhglgDIyYcYicCfCAACAAACAAAQAAQAAAQAAAAAAAAAAA==

> <PUBCHEM_IUPAC_OPENEYE_NAME>
(4,4-dimethylazepan-1-yl)-(1H-indol-5-yl)methanone

> <PUBCHEM_IUPAC_CAS_NAME>
(4,4-dimethyl-1-azepanyl)-(1H-indol-5-yl)methanone

> <PUBCHEM_IUPAC_NAME>
(4,4-dimethylazepan-1-yl)-(1H-indol-5-yl)methanone

> <PUBCHEM_IUPAC_SYSTEMATIC_NAME>
(4,4-dimethylazepan-1-yl)-(1H-indol-5-yl)methanone

> <PUBCHEM_IUPAC_TRADITIONAL_NAME>
(4,4-dimethylazepan-1-yl)-(1H-indol-5-yl)methanone

> <PUBCHEM_IUPAC_INCHI>
InChI=1S/C17H22N2O/c1-17(2)7-3-10-19(11-8-17)16(20)14-4-5-15-13(12-14)6-9-18-15/h4-6,9,12,18H,3,7-8,10-11H2,1-2H3

> <PUBCHEM_IUPAC_INCHIKEY>
XRJFTAYHXNWSOH-UHFFFAOYSA-N

> <PUBCHEM_XLOGP3>
3.5

> <PUBCHEM_EXACT_MASS>
270.173213

> <PUBCHEM_MOLECULAR_FORMULA>
C17H22N2O

> <PUBCHEM_MOLECULAR_WEIGHT>
270.36938

> <PUBCHEM_OPENEYE_CAN_SMILES>
CC1(CCCN(CC1)C(=O)C2=CC3=C(C=C2)NC=C3)C

> <PUBCHEM_OPENEYE_ISO_SMILES>
CC1(CCCN(CC1)C(=O)C2=CC3=C(C=C2)NC=C3)C

> <PUBCHEM_CACTVS_TPSA>
36.1

> <PUBCHEM_MONOISOTOPIC_WEIGHT>
270.173213

> <PUBCHEM_TOTAL_CHARGE>
0

> <PUBCHEM_HEAVY_ATOM_COUNT>
20

> <PUBCHEM_ATOM_DEF_STEREO_COUNT>
0

> <PUBCHEM_ATOM_UDEF_STEREO_COUNT>
0

> <PUBCHEM_BOND_DEF_STEREO_COUNT>
0

> <PUBCHEM_BOND_UDEF_STEREO_COUNT>
0

> <PUBCHEM_ISOTOPIC_ATOM_COUNT>
0

> <PUBCHEM_COMPONENT_COUNT>
1

> <PUBCHEM_CACTVS_TAUTO_COUNT>
3

> <PUBCHEM_COORDINATE_TYPE>
1
5
255

> <PUBCHEM_BONDANNOTATIONS>
13  14  8
13  15  8
14  16  8
15  18  8
16  17  8
16  19  8
17  18  8
19  20  8
3  17  8
3  20  8

$$$$
65284244
  -OEChem-11301218272D

 38 39  0     0  0  0  0  0  0999 V2000
    7.1469   -3.0953    0.0000 Br  0  0  0  0  0  0  0  0  0  0  0  0
    2.0000   -0.2849    0.0000 O   0  0  0  0  0  0  0  0  0  0  0  0
    3.6828   -0.0953    0.0000 N   0  0  0  0  0  0  0  0  0  0  0  0
    4.1828    2.0953    0.0000 C   0  0  0  0  0  0  0  0  0  0  0  0
    4.8063    1.3135    0.0000 C   0  0  0  0  0  0  0  0  0  0  0  0
    3.1828    2.0953    0.0000 C   0  0  0  0  0  0  0  0  0  0  0  0
    4.5838    0.3386    0.0000 C   0  0  0  0  0  0  0  0  0  0  0  0
    2.5593    1.3135    0.0000 C   0  0  0  0  0  0  0  0  0  0  0  0
    4.1828    3.0953    0.0000 C   0  0  0  0  0  0  0  0  0  0  0  0
    4.9646    2.7188    0.0000 C   0  0  0  0  0  0  0  0  0  0  0  0
    2.7818    0.3386    0.0000 C   0  0  0  0  0  0  0  0  0  0  0  0
    3.6828   -1.0953    0.0000 C   0  0  0  0  0  0  0  0  0  0  0  0
    4.5488   -1.5953    0.0000 C   0  0  0  0  0  0  0  0  0  0  0  0
    4.5488   -2.5953    0.0000 C   0  0  0  0  0  0  0  0  0  0  0  0
    5.4149   -1.0953    0.0000 C   0  0  0  0  0  0  0  0  0  0  0  0
    5.4149   -3.0953    0.0000 C   0  0  0  0  0  0  0  0  0  0  0  0
    6.2809   -1.5953    0.0000 C   0  0  0  0  0  0  0  0  0  0  0  0
    6.2809   -2.5953    0.0000 C   0  0  0  0  0  0  0  0  0  0  0  0
    5.3649    1.0445    0.0000 H   0  0  0  0  0  0  0  0  0  0  0  0
    5.1928    1.7982    0.0000 H   0  0  0  0  0  0  0  0  0  0  0  0
    3.3208    2.6998    0.0000 H   0  0  0  0  0  0  0  0  0  0  0  0
    2.6242    2.3643    0.0000 H   0  0  0  0  0  0  0  0  0  0  0  0
    4.7217   -0.2659    0.0000 H   0  0  0  0  0  0  0  0  0  0  0  0
    5.2038    0.3386    0.0000 H   0  0  0  0  0  0  0  0  0  0  0  0
    2.1728    1.7982    0.0000 H   0  0  0  0  0  0  0  0  0  0  0  0
    2.0007    1.0445    0.0000 H   0  0  0  0  0  0  0  0  0  0  0  0
    5.3512    2.2341    0.0000 H   0  0  0  0  0  0  0  0  0  0  0  0
    5.4494    3.1054    0.0000 H   0  0  0  0  0  0  0  0  0  0  0  0
    4.8028    3.0953    0.0000 H   0  0  0  0  0  0  0  0  0  0  0  0
    4.1828    3.7153    0.0000 H   0  0  0  0  0  0  0  0  0  0  0  0
    3.5628    3.0953    0.0000 H   0  0  0  0  0  0  0  0  0  0  0  0
    4.5781    3.2036    0.0000 H   0  0  0  0  0  0  0  0  0  0  0  0
    3.0722   -0.9877    0.0000 H   0  0  0  0  0  0  0  0  0  0  0  0
    3.4708   -1.6779    0.0000 H   0  0  0  0  0  0  0  0  0  0  0  0
    4.0119   -2.9053    0.0000 H   0  0  0  0  0  0  0  0  0  0  0  0
    5.4149   -0.4753    0.0000 H   0  0  0  0  0  0  0  0  0  0  0  0
    5.4149   -3.7153    0.0000 H   0  0  0  0  0  0  0  0  0  0  0  0
    6.8178   -1.2853    0.0000 H   0  0  0  0  0  0  0  0  0  0  0  0
  1 18  1  0  0  0  0
  2 11  2  0  0  0  0
  3  7  1  0  0  0  0
  3 11  1  0  0  0  0
  3 12  1  0  0  0  0
  4  5  1  0  0  0  0
  4  6  1  0  0  0  0
  4  9  1  0  0  0  0
  4 10  1  0  0  0  0
  5  7  1  0  0  0  0
  5 19  1  0  0  0  0
  5 20  1  0  0  0  0
  6  8  1  0  0  0  0
  6 21  1  0  0  0  0
  6 22  1  0  0  0  0
  7 23  1  0  0  0  0
  7 24  1  0  0  0  0
  8 11  1  0  0  0  0
  8 25  1  0  0  0  0
  8 26  1  0  0  0  0
  9 29  1  0  0  0  0
  9 30  1  0  0  0  0
  9 31  1  0  0  0  0
 10 27  1  0  0  0  0
 10 28  1  0  0  0  0
 10 32  1  0  0  0  0
 12 13  1  0  0  0  0
 12 33  1  0  0  0  0
 12 34  1  0  0  0  0
 13 14  2  0  0  0  0
 13 15  1  0  0  0  0
 14 16  1  0  0  0  0
 14 35  1  0  0  0  0
 15 17  2  0  0  0  0
 15 36  1  0  0  0  0
 16 18  2  0  0  0  0
 16 37  1  0  0  0  0
 17 18  1  0  0  0  0
 17 38  1  0  0  0  0
M  END
> <PUBCHEM_COMPOUND_CID>
65284244

> <PUBCHEM_COMPOUND_CANONICALIZED>
1

> <PUBCHEM_CACTVS_COMPLEXITY>
295

> <PUBCHEM_CACTVS_HBOND_ACCEPTOR>
1

> <PUBCHEM_CACTVS_HBOND_DONOR>
0

> <PUBCHEM_CACTVS_ROTATABLE_BOND>
2

> <PUBCHEM_CACTVS_SUBSKEYS>
AAADceByIAAAEAAAAAAAAAAAAAAAAAAAAAAwAAAABYAAAAABAAAAHgBAAAABrgDBmAQyAIMAAACIAiFSEACCAAAgAAQIiAEIBKgIIDKAkRGEIAhghgCIihcYiAAPAgAAAAAAAAAEAAAAAAAAAAAAAAAAAA==

> <PUBCHEM_IUPAC_OPENEYE_NAME>
1-[(4-bromophenyl)methyl]-5,5-dimethyl-azepan-2-one

> <PUBCHEM_IUPAC_CAS_NAME>
1-[(4-bromophenyl)methyl]-5,5-dimethyl-2-azepanone

> <PUBCHEM_IUPAC_NAME>
1-[(4-bromophenyl)methyl]-5,5-dimethylazepan-2-one

> <PUBCHEM_IUPAC_SYSTEMATIC_NAME>
1-[(4-bromophenyl)methyl]-5,5-dimethyl-azepan-2-one

> <PUBCHEM_IUPAC_TRADITIONAL_NAME>
1-(4-bromobenzyl)-5,5-dimethyl-azepan-2-one

> <PUBCHEM_IUPAC_INCHI>
InChI=1S/C15H20BrNO/c1-15(2)8-7-14(18)17(10-9-15)11-12-3-5-13(16)6-4-12/h3-6H,7-11H2,1-2H3

> <PUBCHEM_IUPAC_INCHIKEY>
BGGOFAATYLFYNH-UHFFFAOYSA-N

> <PUBCHEM_XLOGP3>
3.5

> <PUBCHEM_EXACT_MASS>
309.072826

> <PUBCHEM_MOLECULAR_FORMULA>
C15H20BrNO

> <PUBCHEM_MOLECULAR_WEIGHT>
310.2294

> <PUBCHEM_OPENEYE_CAN_SMILES>
CC1(CCC(=O)N(CC1)CC2=CC=C(C=C2)Br)C

> <PUBCHEM_OPENEYE_ISO_SMILES>
CC1(CCC(=O)N(CC1)CC2=CC=C(C=C2)Br)C

> <PUBCHEM_CACTVS_TPSA>
20.3

> <PUBCHEM_MONOISOTOPIC_WEIGHT>
309.072826

> <PUBCHEM_TOTAL_CHARGE>
0

> <PUBCHEM_HEAVY_ATOM_COUNT>
18

> <PUBCHEM_ATOM_DEF_STEREO_COUNT>
0

> <PUBCHEM_ATOM_UDEF_STEREO_COUNT>
0

> <PUBCHEM_BOND_DEF_STEREO_COUNT>
0

> <PUBCHEM_BOND_UDEF_STEREO_COUNT>
0

> <PUBCHEM_ISOTOPIC_ATOM_COUNT>
0

> <PUBCHEM_COMPONENT_COUNT>
1

> <PUBCHEM_CACTVS_TAUTO_COUNT>
2

> <PUBCHEM_COORDINATE_TYPE>
1
5
255

> <PUBCHEM_BONDANNOTATIONS>
13  14  8
13  15  8
14  16  8
15  17  8
16  18  8
17  18  8

$$$$
