28025333
  -OEChem-12041211342D

 40 40  0     0  0  0  0  0  0999 V2000
    2.0000   -3.0000    0.0000 Cl  0  0  0  0  0  0  0  0  0  0  0  0
    5.4641    0.0000    0.0000 O   0  0  0  0  0  0  0  0  0  0  0  0
    5.4641    2.0000    0.0000 N   0  3  0  0  0  0  0  0  0  0  0  0
    3.7320    0.0000    0.0000 N   0  0  0  0  0  0  0  0  0  0  0  0
    6.3301    2.5000    0.0000 C   0  0  0  0  0  0  0  0  0  0  0  0
    7.1962    3.0000    0.0000 C   0  0  0  0  0  0  0  0  0  0  0  0
    5.8301    3.3660    0.0000 C   0  0  0  0  0  0  0  0  0  0  0  0
    6.8301    1.6340    0.0000 C   0  0  0  0  0  0  0  0  0  0  0  0
    4.5981    1.5000    0.0000 C   0  0  0  0  0  0  0  0  0  0  0  0
    7.1962    4.0000    0.0000 C   0  0  0  0  0  0  0  0  0  0  0  0
    4.5981    0.5000    0.0000 C   0  0  0  0  0  0  0  0  0  0  0  0
    3.7320   -1.0000    0.0000 C   0  0  0  0  0  0  0  0  0  0  0  0
    2.8660   -1.5000    0.0000 C   0  0  0  0  0  0  0  0  0  0  0  0
    4.5981   -1.5000    0.0000 C   0  0  0  0  0  0  0  0  0  0  0  0
    3.7320   -3.0000    0.0000 C   0  0  0  0  0  0  0  0  0  0  0  0
    2.8660   -2.5000    0.0000 C   0  0  0  0  0  0  0  0  0  0  0  0
    4.5981   -2.5000    0.0000 C   0  0  0  0  0  0  0  0  0  0  0  0
    3.7320   -4.0000    0.0000 C   0  0  0  0  0  0  0  0  0  0  0  0
    5.1541    2.5369    0.0000 H   0  0  0  0  0  0  0  0  0  0  0  0
    5.7741    1.4631    0.0000 H   0  0  0  0  0  0  0  0  0  0  0  0
    7.4082    2.4174    0.0000 H   0  0  0  0  0  0  0  0  0  0  0  0
    7.8067    3.1077    0.0000 H   0  0  0  0  0  0  0  0  0  0  0  0
    6.3671    3.6760    0.0000 H   0  0  0  0  0  0  0  0  0  0  0  0
    5.5201    3.9030    0.0000 H   0  0  0  0  0  0  0  0  0  0  0  0
    5.2932    3.0560    0.0000 H   0  0  0  0  0  0  0  0  0  0  0  0
    6.2932    1.3240    0.0000 H   0  0  0  0  0  0  0  0  0  0  0  0
    7.1401    1.0970    0.0000 H   0  0  0  0  0  0  0  0  0  0  0  0
    7.3671    1.9440    0.0000 H   0  0  0  0  0  0  0  0  0  0  0  0
    4.3860    2.0826    0.0000 H   0  0  0  0  0  0  0  0  0  0  0  0
    3.9875    1.3923    0.0000 H   0  0  0  0  0  0  0  0  0  0  0  0
    7.8162    4.0000    0.0000 H   0  0  0  0  0  0  0  0  0  0  0  0
    7.1962    4.6200    0.0000 H   0  0  0  0  0  0  0  0  0  0  0  0
    6.5762    4.0000    0.0000 H   0  0  0  0  0  0  0  0  0  0  0  0
    3.1951    0.3100    0.0000 H   0  0  0  0  0  0  0  0  0  0  0  0
    2.3291   -1.1900    0.0000 H   0  0  0  0  0  0  0  0  0  0  0  0
    5.1350   -1.1900    0.0000 H   0  0  0  0  0  0  0  0  0  0  0  0
    5.1350   -2.8100    0.0000 H   0  0  0  0  0  0  0  0  0  0  0  0
    3.1120   -4.0000    0.0000 H   0  0  0  0  0  0  0  0  0  0  0  0
    3.7320   -4.6200    0.0000 H   0  0  0  0  0  0  0  0  0  0  0  0
    4.3520   -4.0000    0.0000 H   0  0  0  0  0  0  0  0  0  0  0  0
  1 16  1  0  0  0  0
  2 11  2  0  0  0  0
  3  5  1  0  0  0  0
  3  9  1  0  0  0  0
  3 19  1  0  0  0  0
  3 20  1  0  0  0  0
  4 11  1  0  0  0  0
  4 12  1  0  0  0  0
  4 34  1  0  0  0  0
  5  6  1  0  0  0  0
  5  7  1  0  0  0  0
  5  8  1  0  0  0  0
  6 10  1  0  0  0  0
  6 21  1  0  0  0  0
  6 22  1  0  0  0  0
  7 23  1  0  0  0  0
  7 24  1  0  0  0  0
  7 25  1  0  0  0  0
  8 26  1  0  0  0  0
  8 27  1  0  0  0  0
  8 28  1  0  0  0  0
  9 11  1  0  0  0  0
  9 29  1  0  0  0  0
  9 30  1  0  0  0  0
 10 31  1  0  0  0  0
 10 32  1  0  0  0  0
 10 33  1  0  0  0  0
 12 13  2  0  0  0  0
 12 14  1  0  0  0  0
 13 16  1  0  0  0  0
 13 35  1  0  0  0  0
 14 17  2  0  0  0  0
 14 36  1  0  0  0  0
 15 16  2  0  0  0  0
 15 17  1  0  0  0  0
 15 18  1  0  0  0  0
 17 37  1  0  0  0  0
 18 38  1  0  0  0  0
 18 39  1  0  0  0  0
 18 40  1  0  0  0  0
M  CHG  1   3   1
M  END
> <PUBCHEM_COMPOUND_CID>
28025333

> <PUBCHEM_COMPOUND_CANONICALIZED>
1

> <PUBCHEM_CACTVS_COMPLEXITY>
281

> <PUBCHEM_CACTVS_HBOND_ACCEPTOR>
1

> <PUBCHEM_CACTVS_HBOND_DONOR>
2

> <PUBCHEM_CACTVS_ROTATABLE_BOND>
5

> <PUBCHEM_CACTVS_SUBSKEYS>
AAADceBzIAAEAAAAAAAAAAAAAAAAAAAAAAAwAAAAAAAAAAABAAAAHgIQAAAADIrBmCQywILAAACIAiVSUACCAAAhBwAIiICIZogIYCLBk7GUIAhglADIyAcQgAAOCAAAAAIBAAAQAAAABAIAAAAAAAAAAA==

> <PUBCHEM_IUPAC_OPENEYE_NAME>
[2-(3-chloro-4-methyl-anilino)-2-oxo-ethyl]-(1,1-dimethylpropyl)ammonium

> <PUBCHEM_IUPAC_CAS_NAME>
[2-(3-chloro-4-methylanilino)-2-oxoethyl]-(2-methylbutan-2-yl)ammonium

> <PUBCHEM_IUPAC_NAME>
[2-(3-chloro-4-methylanilino)-2-oxoethyl]-(2-methylbutan-2-yl)azanium

> <PUBCHEM_IUPAC_SYSTEMATIC_NAME>
[2-[(3-chloranyl-4-methyl-phenyl)amino]-2-oxidanylidene-ethyl]-(2-methylbutan-2-yl)azanium

> <PUBCHEM_IUPAC_TRADITIONAL_NAME>
tert-amyl-[2-(3-chloro-4-methyl-anilino)-2-keto-ethyl]ammonium

> <PUBCHEM_IUPAC_INCHI>
InChI=1S/C14H21ClN2O/c1-5-14(3,4)16-9-13(18)17-11-7-6-10(2)12(15)8-11/h6-8,16H,5,9H2,1-4H3,(H,17,18)/p+1

> <PUBCHEM_IUPAC_INCHIKEY>
IZKGOEUYPUKABW-UHFFFAOYSA-O

> <PUBCHEM_XLOGP3>
3.8

> <PUBCHEM_EXACT_MASS>
269.142066

> <PUBCHEM_MOLECULAR_FORMULA>
C14H22ClN2O+

> <PUBCHEM_MOLECULAR_WEIGHT>
269.79028

> <PUBCHEM_OPENEYE_CAN_SMILES>
CCC(C)(C)[NH2+]CC(=O)NC1=CC(=C(C=C1)C)Cl

> <PUBCHEM_OPENEYE_ISO_SMILES>
CCC(C)(C)[NH2+]CC(=O)NC1=CC(=C(C=C1)C)Cl

> <PUBCHEM_CACTVS_TPSA>
45.7

> <PUBCHEM_MONOISOTOPIC_WEIGHT>
269.142066

> <PUBCHEM_TOTAL_CHARGE>
1

> <PUBCHEM_HEAVY_ATOM_COUNT>
18

> <PUBCHEM_ATOM_DEF_STEREO_COUNT>
0

> <PUBCHEM_ATOM_UDEF_STEREO_COUNT>
0

> <PUBCHEM_BOND_DEF_STEREO_COUNT>
0

> <PUBCHEM_BOND_UDEF_STEREO_COUNT>
0

> <PUBCHEM_ISOTOPIC_ATOM_COUNT>
0

> <PUBCHEM_COMPONENT_COUNT>
1

> <PUBCHEM_CACTVS_TAUTO_COUNT>
3

> <PUBCHEM_COORDINATE_TYPE>
1
5
255

> <PUBCHEM_BONDANNOTATIONS>
12  13  8
12  14  8
13  16  8
14  17  8
15  16  8
15  17  8

$$$$
