40253237
  -OEChem-05231305212D

 39 41  0     0  0  0  0  0  0999 V2000
    6.6353   -0.9292    0.0000 O   0  0  0  0  0  0  0  0  0  0  0  0
    6.2781    0.7656    0.0000 N   0  0  0  0  0  0  0  0  0  0  0  0
    4.6783   -2.9511    0.0000 N   0  0  0  0  0  0  0  0  0  0  0  0
    7.5673    1.9224    0.0000 C   0  0  0  0  0  0  0  0  0  0  0  0
    8.5189    2.2298    0.0000 C   0  0  0  0  0  0  0  0  0  0  0  0
    6.9809    2.7324    0.0000 C   0  0  0  0  0  0  0  0  0  0  0  0
    8.5206    3.2298    0.0000 C   0  0  0  0  0  0  0  0  0  0  0  0
    7.5701    3.5404    0.0000 C   0  0  0  0  0  0  0  0  0  0  0  0
    7.2566    0.9719    0.0000 C   0  0  0  0  0  0  0  0  0  0  0  0
    5.9674   -0.1849    0.0000 C   0  0  0  0  0  0  0  0  0  0  0  0
    4.9889   -0.3911    0.0000 C   0  0  0  0  0  0  0  0  0  0  0  0
    4.6783   -1.3416    0.0000 C   0  0  0  0  0  0  0  0  0  0  0  0
    3.7320   -1.6464    0.0000 C   0  0  0  0  0  0  0  0  0  0  0  0
    3.7320   -2.6464    0.0000 C   0  0  0  0  0  0  0  0  0  0  0  0
    5.2619   -2.1464    0.0000 C   0  0  0  0  0  0  0  0  0  0  0  0
    2.8660   -1.1464    0.0000 C   0  0  0  0  0  0  0  0  0  0  0  0
    2.8660   -3.1464    0.0000 C   0  0  0  0  0  0  0  0  0  0  0  0
    2.0000   -1.6464    0.0000 C   0  0  0  0  0  0  0  0  0  0  0  0
    2.0000   -2.6464    0.0000 C   0  0  0  0  0  0  0  0  0  0  0  0
    6.9547    1.8264    0.0000 H   0  0  0  0  0  0  0  0  0  0  0  0
    8.6467    1.6231    0.0000 H   0  0  0  0  0  0  0  0  0  0  0  0
    9.1356    2.2935    0.0000 H   0  0  0  0  0  0  0  0  0  0  0  0
    6.5208    3.1481    0.0000 H   0  0  0  0  0  0  0  0  0  0  0  0
    6.5194    2.3184    0.0000 H   0  0  0  0  0  0  0  0  0  0  0  0
    7.8232    4.1064    0.0000 H   0  0  0  0  0  0  0  0  0  0  0  0
    7.0337    3.8513    0.0000 H   0  0  0  0  0  0  0  0  0  0  0  0
    9.1371    3.1639    0.0000 H   0  0  0  0  0  0  0  0  0  0  0  0
    8.6505    3.8360    0.0000 H   0  0  0  0  0  0  0  0  0  0  0  0
    7.2772    0.3522    0.0000 H   0  0  0  0  0  0  0  0  0  0  0  0
    7.8704    0.8845    0.0000 H   0  0  0  0  0  0  0  0  0  0  0  0
    5.8640    1.2271    0.0000 H   0  0  0  0  0  0  0  0  0  0  0  0
    4.9684    0.2286    0.0000 H   0  0  0  0  0  0  0  0  0  0  0  0
    4.3751   -0.3038    0.0000 H   0  0  0  0  0  0  0  0  0  0  0  0
    5.8819   -2.1464    0.0000 H   0  0  0  0  0  0  0  0  0  0  0  0
    4.8709   -3.5404    0.0000 H   0  0  0  0  0  0  0  0  0  0  0  0
    2.8660   -0.5264    0.0000 H   0  0  0  0  0  0  0  0  0  0  0  0
    2.8660   -3.7664    0.0000 H   0  0  0  0  0  0  0  0  0  0  0  0
    1.4631   -1.3364    0.0000 H   0  0  0  0  0  0  0  0  0  0  0  0
    1.4631   -2.9564    0.0000 H   0  0  0  0  0  0  0  0  0  0  0  0
  1 10  2  0  0  0  0
  2  9  1  0  0  0  0
  2 10  1  0  0  0  0
  2 31  1  0  0  0  0
  3 14  1  0  0  0  0
  3 15  1  0  0  0  0
  3 35  1  0  0  0  0
  4  5  1  0  0  0  0
  4  6  1  0  0  0  0
  4  9  1  0  0  0  0
  4 20  1  0  0  0  0
  5  7  1  0  0  0  0
  5 21  1  0  0  0  0
  5 22  1  0  0  0  0
  6  8  1  0  0  0  0
  6 23  1  0  0  0  0
  6 24  1  0  0  0  0
  7  8  1  0  0  0  0
  7 27  1  0  0  0  0
  7 28  1  0  0  0  0
  8 25  1  0  0  0  0
  8 26  1  0  0  0  0
  9 29  1  0  0  0  0
  9 30  1  0  0  0  0
 10 11  1  0  0  0  0
 11 12  1  0  0  0  0
 11 32  1  0  0  0  0
 11 33  1  0  0  0  0
 12 13  1  0  0  0  0
 12 15  2  0  0  0  0
 13 14  1  0  0  0  0
 13 16  2  0  0  0  0
 14 17  2  0  0  0  0
 15 34  1  0  0  0  0
 16 18  1  0  0  0  0
 16 36  1  0  0  0  0
 17 19  1  0  0  0  0
 17 37  1  0  0  0  0
 18 19  2  0  0  0  0
 18 38  1  0  0  0  0
 19 39  1  0  0  0  0
M  END
> <PUBCHEM_COMPOUND_CID>
40253237

> <PUBCHEM_COMPOUND_CANONICALIZED>
1

> <PUBCHEM_CACTVS_COMPLEXITY>
312

> <PUBCHEM_CACTVS_HBOND_ACCEPTOR>
1

> <PUBCHEM_CACTVS_HBOND_DONOR>
2

> <PUBCHEM_CACTVS_ROTATABLE_BOND>
4

> <PUBCHEM_CACTVS_SUBSKEYS>
AAADceB7IAAAAAAAAAAAAAAAAAAAAeIAAAAwAAAAAAAAAFgB8AAAHgAQAAAADQjBngQ8wPLJkACoAzV3VACCgCAxAiAI2aE4ZJgIIPLAlZGEIAhglgDIyAccicCegAAAAAACAAAAAAAAAAQAAAAAAAAAAA==

> <PUBCHEM_IUPAC_OPENEYE_NAME>
N-(cyclopentylmethyl)-2-(1H-indol-3-yl)acetamide

> <PUBCHEM_IUPAC_CAS_NAME>
N-(cyclopentylmethyl)-2-(1H-indol-3-yl)acetamide

> <PUBCHEM_IUPAC_NAME>
N-(cyclopentylmethyl)-2-(1H-indol-3-yl)acetamide

> <PUBCHEM_IUPAC_SYSTEMATIC_NAME>
N-(cyclopentylmethyl)-2-(1H-indol-3-yl)ethanamide

> <PUBCHEM_IUPAC_TRADITIONAL_NAME>
N-(cyclopentylmethyl)-2-(1H-indol-3-yl)acetamide

> <PUBCHEM_IUPAC_INCHI>
InChI=1S/C16H20N2O/c19-16(18-10-12-5-1-2-6-12)9-13-11-17-15-8-4-3-7-14(13)15/h3-4,7-8,11-12,17H,1-2,5-6,9-10H2,(H,18,19)

> <PUBCHEM_IUPAC_INCHIKEY>
LZUTWTQCCDFBPK-UHFFFAOYSA-N

> <PUBCHEM_XLOGP3>
3

> <PUBCHEM_EXACT_MASS>
256.157563

> <PUBCHEM_MOLECULAR_FORMULA>
C16H20N2O

> <PUBCHEM_MOLECULAR_WEIGHT>
256.3428

> <PUBCHEM_OPENEYE_CAN_SMILES>
C1CCC(C1)CNC(=O)CC2=CNC3=CC=CC=C32

> <PUBCHEM_OPENEYE_ISO_SMILES>
C1CCC(C1)CNC(=O)CC2=CNC3=CC=CC=C32

> <PUBCHEM_CACTVS_TPSA>
44.9

> <PUBCHEM_MONOISOTOPIC_WEIGHT>
256.157563

> <PUBCHEM_TOTAL_CHARGE>
0

> <PUBCHEM_HEAVY_ATOM_COUNT>
19

> <PUBCHEM_ATOM_DEF_STEREO_COUNT>
0

> <PUBCHEM_ATOM_UDEF_STEREO_COUNT>
0

> <PUBCHEM_BOND_DEF_STEREO_COUNT>
0

> <PUBCHEM_BOND_UDEF_STEREO_COUNT>
0

> <PUBCHEM_ISOTOPIC_ATOM_COUNT>
0

> <PUBCHEM_COMPONENT_COUNT>
1

> <PUBCHEM_CACTVS_TAUTO_COUNT>
2

> <PUBCHEM_COORDINATE_TYPE>
1
5
255

> <PUBCHEM_BONDANNOTATIONS>
12  13  8
12  15  8
13  14  8
13  16  8
14  17  8
16  18  8
17  19  8
18  19  8
3  14  8
3  15  8

$$$$
40253239
  -OEChem-05231305212D

 45 47  0     0  0  0  0  0  0999 V2000
    7.9244   -0.3508    0.0000 O   0  0  0  0  0  0  0  0  0  0  0  0
    7.5673    1.3440    0.0000 N   0  0  0  0  0  0  0  0  0  0  0  0
    4.6783   -3.5295    0.0000 N   0  0  0  0  0  0  0  0  0  0  0  0
    8.8564    2.5008    0.0000 C   0  0  0  0  0  0  0  0  0  0  0  0
    9.8080    2.8081    0.0000 C   0  0  0  0  0  0  0  0  0  0  0  0
    8.2700    3.3108    0.0000 C   0  0  0  0  0  0  0  0  0  0  0  0
    9.8098    3.8081    0.0000 C   0  0  0  0  0  0  0  0  0  0  0  0
    8.8592    4.1188    0.0000 C   0  0  0  0  0  0  0  0  0  0  0  0
    8.5458    1.5502    0.0000 C   0  0  0  0  0  0  0  0  0  0  0  0
    7.2566    0.3935    0.0000 C   0  0  0  0  0  0  0  0  0  0  0  0
    6.2781    0.1873    0.0000 C   0  0  0  0  0  0  0  0  0  0  0  0
    5.9674   -0.7633    0.0000 C   0  0  0  0  0  0  0  0  0  0  0  0
    4.9889   -0.9695    0.0000 C   0  0  0  0  0  0  0  0  0  0  0  0
    4.6783   -1.9200    0.0000 C   0  0  0  0  0  0  0  0  0  0  0  0
    3.7320   -2.2247    0.0000 C   0  0  0  0  0  0  0  0  0  0  0  0
    3.7320   -3.2247    0.0000 C   0  0  0  0  0  0  0  0  0  0  0  0
    5.2619   -2.7247    0.0000 C   0  0  0  0  0  0  0  0  0  0  0  0
    2.8660   -1.7247    0.0000 C   0  0  0  0  0  0  0  0  0  0  0  0
    2.8660   -3.7247    0.0000 C   0  0  0  0  0  0  0  0  0  0  0  0
    2.0000   -2.2247    0.0000 C   0  0  0  0  0  0  0  0  0  0  0  0
    2.0000   -3.2247    0.0000 C   0  0  0  0  0  0  0  0  0  0  0  0
    9.2941    2.0616    0.0000 H   0  0  0  0  0  0  0  0  0  0  0  0
    7.8100    3.7264    0.0000 H   0  0  0  0  0  0  0  0  0  0  0  0
    7.8086    2.8967    0.0000 H   0  0  0  0  0  0  0  0  0  0  0  0
    9.9359    2.2014    0.0000 H   0  0  0  0  0  0  0  0  0  0  0  0
   10.4247    2.8719    0.0000 H   0  0  0  0  0  0  0  0  0  0  0  0
    9.1124    4.6847    0.0000 H   0  0  0  0  0  0  0  0  0  0  0  0
    8.3228    4.4297    0.0000 H   0  0  0  0  0  0  0  0  0  0  0  0
   10.4262    3.7422    0.0000 H   0  0  0  0  0  0  0  0  0  0  0  0
    9.9397    4.4143    0.0000 H   0  0  0  0  0  0  0  0  0  0  0  0
    8.5663    0.9306    0.0000 H   0  0  0  0  0  0  0  0  0  0  0  0
    9.1596    1.4629    0.0000 H   0  0  0  0  0  0  0  0  0  0  0  0
    7.1532    1.8055    0.0000 H   0  0  0  0  0  0  0  0  0  0  0  0
    6.2575    0.8069    0.0000 H   0  0  0  0  0  0  0  0  0  0  0  0
    5.6643    0.2746    0.0000 H   0  0  0  0  0  0  0  0  0  0  0  0
    5.9880   -1.3829    0.0000 H   0  0  0  0  0  0  0  0  0  0  0  0
    6.5812   -0.8506    0.0000 H   0  0  0  0  0  0  0  0  0  0  0  0
    4.9684   -0.3498    0.0000 H   0  0  0  0  0  0  0  0  0  0  0  0
    4.3751   -0.8821    0.0000 H   0  0  0  0  0  0  0  0  0  0  0  0
    5.8819   -2.7247    0.0000 H   0  0  0  0  0  0  0  0  0  0  0  0
    4.8709   -4.1188    0.0000 H   0  0  0  0  0  0  0  0  0  0  0  0
    2.8660   -1.1047    0.0000 H   0  0  0  0  0  0  0  0  0  0  0  0
    2.8660   -4.3447    0.0000 H   0  0  0  0  0  0  0  0  0  0  0  0
    1.4631   -1.9147    0.0000 H   0  0  0  0  0  0  0  0  0  0  0  0
    1.4631   -3.5347    0.0000 H   0  0  0  0  0  0  0  0  0  0  0  0
  1 10  2  0  0  0  0
  2  9  1  0  0  0  0
  2 10  1  0  0  0  0
  2 33  1  0  0  0  0
  3 16  1  0  0  0  0
  3 17  1  0  0  0  0
  3 41  1  0  0  0  0
  4  5  1  0  0  0  0
  4  6  1  0  0  0  0
  4  9  1  0  0  0  0
  4 22  1  0  0  0  0
  5  7  1  0  0  0  0
  5 25  1  0  0  0  0
  5 26  1  0  0  0  0
  6  8  1  0  0  0  0
  6 23  1  0  0  0  0
  6 24  1  0  0  0  0
  7  8  1  0  0  0  0
  7 29  1  0  0  0  0
  7 30  1  0  0  0  0
  8 27  1  0  0  0  0
  8 28  1  0  0  0  0
  9 31  1  0  0  0  0
  9 32  1  0  0  0  0
 10 11  1  0  0  0  0
 11 12  1  0  0  0  0
 11 34  1  0  0  0  0
 11 35  1  0  0  0  0
 12 13  1  0  0  0  0
 12 36  1  0  0  0  0
 12 37  1  0  0  0  0
 13 14  1  0  0  0  0
 13 38  1  0  0  0  0
 13 39  1  0  0  0  0
 14 15  1  0  0  0  0
 14 17  2  0  0  0  0
 15 16  1  0  0  0  0
 15 18  2  0  0  0  0
 16 19  2  0  0  0  0
 17 40  1  0  0  0  0
 18 20  1  0  0  0  0
 18 42  1  0  0  0  0
 19 21  1  0  0  0  0
 19 43  1  0  0  0  0
 20 21  2  0  0  0  0
 20 44  1  0  0  0  0
 21 45  1  0  0  0  0
M  END
> <PUBCHEM_COMPOUND_CID>
40253239

> <PUBCHEM_COMPOUND_CANONICALIZED>
1

> <PUBCHEM_CACTVS_COMPLEXITY>
338

> <PUBCHEM_CACTVS_HBOND_ACCEPTOR>
1

> <PUBCHEM_CACTVS_HBOND_DONOR>
2

> <PUBCHEM_CACTVS_ROTATABLE_BOND>
6

> <PUBCHEM_CACTVS_SUBSKEYS>
AAADceB7IAAAAAAAAAAAAAAAAAAAAeIAAAAwAAAAAAAAAFgB8AAAHgAQAAAADQjBngQ8wPLJkACoAzV3VACCgCAxAiAI2aE4ZJgIIPLAkZGEIAhglgDIyAcYiMCOgAAAAAACAAAAAAAAAAQAAAAAAAAAAA==

> <PUBCHEM_IUPAC_OPENEYE_NAME>
N-(cyclopentylmethyl)-4-(1H-indol-3-yl)butanamide

> <PUBCHEM_IUPAC_CAS_NAME>
N-(cyclopentylmethyl)-4-(1H-indol-3-yl)butanamide

> <PUBCHEM_IUPAC_NAME>
N-(cyclopentylmethyl)-4-(1H-indol-3-yl)butanamide

> <PUBCHEM_IUPAC_SYSTEMATIC_NAME>
N-(cyclopentylmethyl)-4-(1H-indol-3-yl)butanamide

> <PUBCHEM_IUPAC_TRADITIONAL_NAME>
N-(cyclopentylmethyl)-4-(1H-indol-3-yl)butyramide

> <PUBCHEM_IUPAC_INCHI>
InChI=1S/C18H24N2O/c21-18(20-12-14-6-1-2-7-14)11-5-8-15-13-19-17-10-4-3-9-16(15)17/h3-4,9-10,13-14,19H,1-2,5-8,11-12H2,(H,20,21)

> <PUBCHEM_IUPAC_INCHIKEY>
IZCXPVFIFLWCBD-UHFFFAOYSA-N

> <PUBCHEM_XLOGP3>
3.9

> <PUBCHEM_EXACT_MASS>
284.188863

> <PUBCHEM_MOLECULAR_FORMULA>
C18H24N2O

> <PUBCHEM_MOLECULAR_WEIGHT>
284.39596

> <PUBCHEM_OPENEYE_CAN_SMILES>
C1CCC(C1)CNC(=O)CCCC2=CNC3=CC=CC=C32

> <PUBCHEM_OPENEYE_ISO_SMILES>
C1CCC(C1)CNC(=O)CCCC2=CNC3=CC=CC=C32

> <PUBCHEM_CACTVS_TPSA>
44.9

> <PUBCHEM_MONOISOTOPIC_WEIGHT>
284.188863

> <PUBCHEM_TOTAL_CHARGE>
0

> <PUBCHEM_HEAVY_ATOM_COUNT>
21

> <PUBCHEM_ATOM_DEF_STEREO_COUNT>
0

> <PUBCHEM_ATOM_UDEF_STEREO_COUNT>
0

> <PUBCHEM_BOND_DEF_STEREO_COUNT>
0

> <PUBCHEM_BOND_UDEF_STEREO_COUNT>
0

> <PUBCHEM_ISOTOPIC_ATOM_COUNT>
0

> <PUBCHEM_COMPONENT_COUNT>
1

> <PUBCHEM_CACTVS_TAUTO_COUNT>
2

> <PUBCHEM_COORDINATE_TYPE>
1
5
255

> <PUBCHEM_BONDANNOTATIONS>
14  15  8
14  17  8
15  16  8
15  18  8
16  19  8
18  20  8
19  21  8
20  21  8
3  16  8
3  17  8

$$$$
40253253
  -OEChem-05231305212D

 32 33  0     0  0  0  0  0  0999 V2000
    2.0000   -3.1012    0.0000 I   0  0  0  0  0  0  0  0  0  0  0  0
    2.8660    0.3988    0.0000 O   0  0  0  0  0  0  0  0  0  0  0  0
    4.5981    0.3988    0.0000 N   0  0  0  0  0  0  0  0  0  0  0  0
    5.4641    1.8988    0.0000 C   0  0  0  0  0  0  0  0  0  0  0  0
    6.3776    1.4921    0.0000 C   0  0  0  0  0  0  0  0  0  0  0  0
    5.5686    2.8933    0.0000 C   0  0  0  0  0  0  0  0  0  0  0  0
    7.0468    2.2352    0.0000 C   0  0  0  0  0  0  0  0  0  0  0  0
    6.5468    3.1012    0.0000 C   0  0  0  0  0  0  0  0  0  0  0  0
    4.5981    1.3988    0.0000 C   0  0  0  0  0  0  0  0  0  0  0  0
    3.7320   -0.1012    0.0000 C   0  0  0  0  0  0  0  0  0  0  0  0
    3.7320   -1.1012    0.0000 C   0  0  0  0  0  0  0  0  0  0  0  0
    2.8660   -1.6012    0.0000 C   0  0  0  0  0  0  0  0  0  0  0  0
    4.5981   -1.6012    0.0000 C   0  0  0  0  0  0  0  0  0  0  0  0
    2.8660   -2.6012    0.0000 C   0  0  0  0  0  0  0  0  0  0  0  0
    4.5981   -2.6012    0.0000 C   0  0  0  0  0  0  0  0  0  0  0  0
    3.7320   -3.1012    0.0000 C   0  0  0  0  0  0  0  0  0  0  0  0
    4.9441    2.2365    0.0000 H   0  0  0  0  0  0  0  0  0  0  0  0
    6.0677    0.9551    0.0000 H   0  0  0  0  0  0  0  0  0  0  0  0
    6.8792    1.1276    0.0000 H   0  0  0  0  0  0  0  0  0  0  0  0
    5.5038    3.5099    0.0000 H   0  0  0  0  0  0  0  0  0  0  0  0
    4.9486    2.8933    0.0000 H   0  0  0  0  0  0  0  0  0  0  0  0
    7.4616    1.7744    0.0000 H   0  0  0  0  0  0  0  0  0  0  0  0
    7.5484    2.5996    0.0000 H   0  0  0  0  0  0  0  0  0  0  0  0
    7.1132    3.3534    0.0000 H   0  0  0  0  0  0  0  0  0  0  0  0
    6.3552    3.6909    0.0000 H   0  0  0  0  0  0  0  0  0  0  0  0
    4.3860    1.9814    0.0000 H   0  0  0  0  0  0  0  0  0  0  0  0
    3.9875    1.2911    0.0000 H   0  0  0  0  0  0  0  0  0  0  0  0
    5.1350    0.0888    0.0000 H   0  0  0  0  0  0  0  0  0  0  0  0
    2.3291   -1.2912    0.0000 H   0  0  0  0  0  0  0  0  0  0  0  0
    5.1350   -1.2912    0.0000 H   0  0  0  0  0  0  0  0  0  0  0  0
    5.1350   -2.9112    0.0000 H   0  0  0  0  0  0  0  0  0  0  0  0
    3.7320   -3.7212    0.0000 H   0  0  0  0  0  0  0  0  0  0  0  0
  1 14  1  0  0  0  0
  2 10  2  0  0  0  0
  3  9  1  0  0  0  0
  3 10  1  0  0  0  0
  3 28  1  0  0  0  0
  4  5  1  0  0  0  0
  4  6  1  0  0  0  0
  4  9  1  0  0  0  0
  4 17  1  0  0  0  0
  5  7  1  0  0  0  0
  5 18  1  0  0  0  0
  5 19  1  0  0  0  0
  6  8  1  0  0  0  0
  6 20  1  0  0  0  0
  6 21  1  0  0  0  0
  7  8  1  0  0  0  0
  7 22  1  0  0  0  0
  7 23  1  0  0  0  0
  8 24  1  0  0  0  0
  8 25  1  0  0  0  0
  9 26  1  0  0  0  0
  9 27  1  0  0  0  0
 10 11  1  0  0  0  0
 11 12  2  0  0  0  0
 11 13  1  0  0  0  0
 12 14  1  0  0  0  0
 12 29  1  0  0  0  0
 13 15  2  0  0  0  0
 13 30  1  0  0  0  0
 14 16  2  0  0  0  0
 15 16  1  0  0  0  0
 15 31  1  0  0  0  0
 16 32  1  0  0  0  0
M  END
> <PUBCHEM_COMPOUND_CID>
40253253

> <PUBCHEM_COMPOUND_CANONICALIZED>
1

> <PUBCHEM_CACTVS_COMPLEXITY>
238

> <PUBCHEM_CACTVS_HBOND_ACCEPTOR>
1

> <PUBCHEM_CACTVS_HBOND_DONOR>
1

> <PUBCHEM_CACTVS_ROTATABLE_BOND>
3

> <PUBCHEM_CACTVS_SUBSKEYS>
AAADceByIAAAAgAAAAAAAAAAAAAAAYAAAAAwAAAAAAAAAAABAAAAHgAwAAAADQDDmAQwAILAAACIAiFSEACCAAAkAAAIiIEIBMgIIDKAlRGEIQhglgCIiYcYiACOAAAAAAAAAAAAAAAAAAAAAAAAAAAAAA==

> <PUBCHEM_IUPAC_OPENEYE_NAME>
N-(cyclopentylmethyl)-3-iodo-benzamide

> <PUBCHEM_IUPAC_CAS_NAME>
N-(cyclopentylmethyl)-3-iodobenzamide

> <PUBCHEM_IUPAC_NAME>
N-(cyclopentylmethyl)-3-iodobenzamide

> <PUBCHEM_IUPAC_SYSTEMATIC_NAME>
N-(cyclopentylmethyl)-3-iodanyl-benzamide

> <PUBCHEM_IUPAC_TRADITIONAL_NAME>
N-(cyclopentylmethyl)-3-iodo-benzamide

> <PUBCHEM_IUPAC_INCHI>
InChI=1S/C13H16INO/c14-12-7-3-6-11(8-12)13(16)15-9-10-4-1-2-5-10/h3,6-8,10H,1-2,4-5,9H2,(H,15,16)

> <PUBCHEM_IUPAC_INCHIKEY>
ZTTYDYOZMFDFGJ-UHFFFAOYSA-N

> <PUBCHEM_XLOGP3>
4.1

> <PUBCHEM_EXACT_MASS>
329.027662

> <PUBCHEM_MOLECULAR_FORMULA>
C13H16INO

> <PUBCHEM_MOLECULAR_WEIGHT>
329.17671

> <PUBCHEM_OPENEYE_CAN_SMILES>
C1CCC(C1)CNC(=O)C2=CC(=CC=C2)I

> <PUBCHEM_OPENEYE_ISO_SMILES>
C1CCC(C1)CNC(=O)C2=CC(=CC=C2)I

> <PUBCHEM_CACTVS_TPSA>
29.1

> <PUBCHEM_MONOISOTOPIC_WEIGHT>
329.027662

> <PUBCHEM_TOTAL_CHARGE>
0

> <PUBCHEM_HEAVY_ATOM_COUNT>
16

> <PUBCHEM_ATOM_DEF_STEREO_COUNT>
0

> <PUBCHEM_ATOM_UDEF_STEREO_COUNT>
0

> <PUBCHEM_BOND_DEF_STEREO_COUNT>
0

> <PUBCHEM_BOND_UDEF_STEREO_COUNT>
0

> <PUBCHEM_ISOTOPIC_ATOM_COUNT>
0

> <PUBCHEM_COMPONENT_COUNT>
1

> <PUBCHEM_CACTVS_TAUTO_COUNT>
2

> <PUBCHEM_COORDINATE_TYPE>
1
5
255

> <PUBCHEM_BONDANNOTATIONS>
11  12  8
11  13  8
12  14  8
13  15  8
14  16  8
15  16  8

$$$$
40253758
  -OEChem-05231305212D

 36 38  0     0  0  0  0  0  0999 V2000
    6.7619    1.8264    0.0000 O   0  0  0  0  0  0  0  0  0  0  0  0
    6.7619    0.0943    0.0000 N   0  0  0  0  0  0  0  0  0  0  0  0
    4.6783    1.7651    0.0000 N   0  0  0  0  0  0  0  0  0  0  0  0
    8.2619   -0.7717    0.0000 C   0  0  0  0  0  0  0  0  0  0  0  0
    7.8551   -1.6853    0.0000 C   0  0  0  0  0  0  0  0  0  0  0  0
    9.2564   -0.8762    0.0000 C   0  0  0  0  0  0  0  0  0  0  0  0
    8.5983   -2.3544    0.0000 C   0  0  0  0  0  0  0  0  0  0  0  0
    9.4643   -1.8544    0.0000 C   0  0  0  0  0  0  0  0  0  0  0  0
    7.7619    0.0943    0.0000 C   0  0  0  0  0  0  0  0  0  0  0  0
    6.2619    0.9603    0.0000 C   0  0  0  0  0  0  0  0  0  0  0  0
    5.2619    0.9603    0.0000 C   0  0  0  0  0  0  0  0  0  0  0  0
    3.7320    1.4603    0.0000 C   0  0  0  0  0  0  0  0  0  0  0  0
    3.7320    0.4603    0.0000 C   0  0  0  0  0  0  0  0  0  0  0  0
    4.6783    0.1556    0.0000 C   0  0  0  0  0  0  0  0  0  0  0  0
    2.8660    1.9603    0.0000 C   0  0  0  0  0  0  0  0  0  0  0  0
    2.8660   -0.0397    0.0000 C   0  0  0  0  0  0  0  0  0  0  0  0
    2.0000    1.4603    0.0000 C   0  0  0  0  0  0  0  0  0  0  0  0
    2.0000    0.4603    0.0000 C   0  0  0  0  0  0  0  0  0  0  0  0
    8.5996   -0.2517    0.0000 H   0  0  0  0  0  0  0  0  0  0  0  0
    7.3182   -1.3753    0.0000 H   0  0  0  0  0  0  0  0  0  0  0  0
    7.4907   -2.1869    0.0000 H   0  0  0  0  0  0  0  0  0  0  0  0
    9.8730   -0.8114    0.0000 H   0  0  0  0  0  0  0  0  0  0  0  0
    9.2564   -0.2562    0.0000 H   0  0  0  0  0  0  0  0  0  0  0  0
    8.1375   -2.7692    0.0000 H   0  0  0  0  0  0  0  0  0  0  0  0
    8.9627   -2.8560    0.0000 H   0  0  0  0  0  0  0  0  0  0  0  0
    9.7165   -2.4208    0.0000 H   0  0  0  0  0  0  0  0  0  0  0  0
   10.0540   -1.6628    0.0000 H   0  0  0  0  0  0  0  0  0  0  0  0
    8.3445    0.3064    0.0000 H   0  0  0  0  0  0  0  0  0  0  0  0
    7.6542    0.7049    0.0000 H   0  0  0  0  0  0  0  0  0  0  0  0
    6.4519   -0.4426    0.0000 H   0  0  0  0  0  0  0  0  0  0  0  0
    4.8709    2.3544    0.0000 H   0  0  0  0  0  0  0  0  0  0  0  0
    4.8709   -0.4337    0.0000 H   0  0  0  0  0  0  0  0  0  0  0  0
    2.8660    2.5803    0.0000 H   0  0  0  0  0  0  0  0  0  0  0  0
    2.8660   -0.6597    0.0000 H   0  0  0  0  0  0  0  0  0  0  0  0
    1.4631    1.7703    0.0000 H   0  0  0  0  0  0  0  0  0  0  0  0
    1.4631    0.1503    0.0000 H   0  0  0  0  0  0  0  0  0  0  0  0
  1 10  2  0  0  0  0
  2  9  1  0  0  0  0
  2 10  1  0  0  0  0
  2 30  1  0  0  0  0
  3 11  1  0  0  0  0
  3 12  1  0  0  0  0
  3 31  1  0  0  0  0
  4  5  1  0  0  0  0
  4  6  1  0  0  0  0
  4  9  1  0  0  0  0
  4 19  1  0  0  0  0
  5  7  1  0  0  0  0
  5 20  1  0  0  0  0
  5 21  1  0  0  0  0
  6  8  1  0  0  0  0
  6 22  1  0  0  0  0
  6 23  1  0  0  0  0
  7  8  1  0  0  0  0
  7 24  1  0  0  0  0
  7 25  1  0  0  0  0
  8 26  1  0  0  0  0
  8 27  1  0  0  0  0
  9 28  1  0  0  0  0
  9 29  1  0  0  0  0
 10 11  1  0  0  0  0
 11 14  2  0  0  0  0
 12 13  1  0  0  0  0
 12 15  2  0  0  0  0
 13 14  1  0  0  0  0
 13 16  2  0  0  0  0
 14 32  1  0  0  0  0
 15 17  1  0  0  0  0
 15 33  1  0  0  0  0
 16 18  1  0  0  0  0
 16 34  1  0  0  0  0
 17 18  2  0  0  0  0
 17 35  1  0  0  0  0
 18 36  1  0  0  0  0
M  END
> <PUBCHEM_COMPOUND_CID>
40253758

> <PUBCHEM_COMPOUND_CANONICALIZED>
1

> <PUBCHEM_CACTVS_COMPLEXITY>
299

> <PUBCHEM_CACTVS_HBOND_ACCEPTOR>
1

> <PUBCHEM_CACTVS_HBOND_DONOR>
2

> <PUBCHEM_CACTVS_ROTATABLE_BOND>
3

> <PUBCHEM_CACTVS_SUBSKEYS>
AAADceBzIAAAAAAAAAAAAAAAAAAAAeIAAAAwAAAAAAAAAFgB8AAAHgAQAAAADQjBngQwwPLJkACoAyVyVACCgCAnAiAImaG4ZNgIYPLAlbGUIQhglgDIyYcYiYCeAAAAAAACAAAAAAAAAAQAAAAAAAAAAA==

> <PUBCHEM_IUPAC_OPENEYE_NAME>
N-(cyclopentylmethyl)-1H-indole-2-carboxamide

> <PUBCHEM_IUPAC_CAS_NAME>
N-(cyclopentylmethyl)-1H-indole-2-carboxamide

> <PUBCHEM_IUPAC_NAME>
N-(cyclopentylmethyl)-1H-indole-2-carboxamide

> <PUBCHEM_IUPAC_SYSTEMATIC_NAME>
N-(cyclopentylmethyl)-1H-indole-2-carboxamide

> <PUBCHEM_IUPAC_TRADITIONAL_NAME>
N-(cyclopentylmethyl)-1H-indole-2-carboxamide

> <PUBCHEM_IUPAC_INCHI>
InChI=1S/C15H18N2O/c18-15(16-10-11-5-1-2-6-11)14-9-12-7-3-4-8-13(12)17-14/h3-4,7-9,11,17H,1-2,5-6,10H2,(H,16,18)

> <PUBCHEM_IUPAC_INCHIKEY>
KUSNGJYWEXLJJE-UHFFFAOYSA-N

> <PUBCHEM_XLOGP3>
3.9

> <PUBCHEM_EXACT_MASS>
242.141913

> <PUBCHEM_MOLECULAR_FORMULA>
C15H18N2O

> <PUBCHEM_MOLECULAR_WEIGHT>
242.31622

> <PUBCHEM_OPENEYE_CAN_SMILES>
C1CCC(C1)CNC(=O)C2=CC3=CC=CC=C3N2

> <PUBCHEM_OPENEYE_ISO_SMILES>
C1CCC(C1)CNC(=O)C2=CC3=CC=CC=C3N2

> <PUBCHEM_CACTVS_TPSA>
44.9

> <PUBCHEM_MONOISOTOPIC_WEIGHT>
242.141913

> <PUBCHEM_TOTAL_CHARGE>
0

> <PUBCHEM_HEAVY_ATOM_COUNT>
18

> <PUBCHEM_ATOM_DEF_STEREO_COUNT>
0

> <PUBCHEM_ATOM_UDEF_STEREO_COUNT>
0

> <PUBCHEM_BOND_DEF_STEREO_COUNT>
0

> <PUBCHEM_BOND_UDEF_STEREO_COUNT>
0

> <PUBCHEM_ISOTOPIC_ATOM_COUNT>
0

> <PUBCHEM_COMPONENT_COUNT>
1

> <PUBCHEM_CACTVS_TAUTO_COUNT>
11

> <PUBCHEM_COORDINATE_TYPE>
1
5
255

> <PUBCHEM_BONDANNOTATIONS>
11  14  8
12  13  8
12  15  8
13  14  8
13  16  8
15  17  8
16  18  8
17  18  8
3  11  8
3  12  8

$$$$
