42951903
  -OEChem-11301217512D

 47 48  0     1  0  0  0  0  0999 V2000
    5.6103    1.7266    0.0000 O   0  0  0  0  0  0  0  0  0  0  0  0
    7.2566    1.1885    0.0000 N   0  0  0  0  0  0  0  0  0  0  0  0
    4.6783   -2.7344    0.0000 N   0  0  0  0  0  0  0  0  0  0  0  0
    8.5458    2.3452    0.0000 C   0  0  0  0  0  0  0  0  0  0  0  0
    7.5673    2.1390    0.0000 C   0  0  3  0  0  0  0  0  0  0  0  0
    9.5243    2.5515    0.0000 C   0  0  0  0  0  0  0  0  0  0  0  0
    8.3396    3.3238    0.0000 C   0  0  0  0  0  0  0  0  0  0  0  0
    8.7520    1.3667    0.0000 C   0  0  0  0  0  0  0  0  0  0  0  0
    6.8994    2.8833    0.0000 C   0  0  0  0  0  0  0  0  0  0  0  0
    6.2781    0.9823    0.0000 C   0  0  0  0  0  0  0  0  0  0  0  0
    5.9674    0.0318    0.0000 C   0  0  0  0  0  0  0  0  0  0  0  0
    7.9244    0.4442    0.0000 C   0  0  0  0  0  0  0  0  0  0  0  0
    4.9889   -0.1744    0.0000 C   0  0  0  0  0  0  0  0  0  0  0  0
    4.6783   -1.1250    0.0000 C   0  0  0  0  0  0  0  0  0  0  0  0
    3.7320   -1.4297    0.0000 C   0  0  0  0  0  0  0  0  0  0  0  0
    3.7320   -2.4297    0.0000 C   0  0  0  0  0  0  0  0  0  0  0  0
    5.2619   -1.9297    0.0000 C   0  0  0  0  0  0  0  0  0  0  0  0
    2.8660   -0.9297    0.0000 C   0  0  0  0  0  0  0  0  0  0  0  0
    2.8660   -2.9297    0.0000 C   0  0  0  0  0  0  0  0  0  0  0  0
    2.0000   -1.4297    0.0000 C   0  0  0  0  0  0  0  0  0  0  0  0
    2.0000   -2.4297    0.0000 C   0  0  0  0  0  0  0  0  0  0  0  0
    6.9606    2.0112    0.0000 H   0  0  0  0  0  0  0  0  0  0  0  0
    8.1453    1.2389    0.0000 H   0  0  0  0  0  0  0  0  0  0  0  0
    8.8798    0.7601    0.0000 H   0  0  0  0  0  0  0  0  0  0  0  0
    9.3587    1.4946    0.0000 H   0  0  0  0  0  0  0  0  0  0  0  0
    8.9462    3.4516    0.0000 H   0  0  0  0  0  0  0  0  0  0  0  0
    8.2117    3.9304    0.0000 H   0  0  0  0  0  0  0  0  0  0  0  0
    7.7329    3.1959    0.0000 H   0  0  0  0  0  0  0  0  0  0  0  0
    9.6521    1.9448    0.0000 H   0  0  0  0  0  0  0  0  0  0  0  0
   10.1310    2.6793    0.0000 H   0  0  0  0  0  0  0  0  0  0  0  0
    9.3964    3.1581    0.0000 H   0  0  0  0  0  0  0  0  0  0  0  0
    7.3609    3.2974    0.0000 H   0  0  0  0  0  0  0  0  0  0  0  0
    6.4854    3.3448    0.0000 H   0  0  0  0  0  0  0  0  0  0  0  0
    6.4380    2.4693    0.0000 H   0  0  0  0  0  0  0  0  0  0  0  0
    5.9880   -0.5879    0.0000 H   0  0  0  0  0  0  0  0  0  0  0  0
    6.5812   -0.0556    0.0000 H   0  0  0  0  0  0  0  0  0  0  0  0
    7.4630    0.0301    0.0000 H   0  0  0  0  0  0  0  0  0  0  0  0
    8.3385   -0.0173    0.0000 H   0  0  0  0  0  0  0  0  0  0  0  0
    8.3859    0.8583    0.0000 H   0  0  0  0  0  0  0  0  0  0  0  0
    4.9684    0.4452    0.0000 H   0  0  0  0  0  0  0  0  0  0  0  0
    4.3751   -0.0871    0.0000 H   0  0  0  0  0  0  0  0  0  0  0  0
    5.8819   -1.9297    0.0000 H   0  0  0  0  0  0  0  0  0  0  0  0
    4.8709   -3.3238    0.0000 H   0  0  0  0  0  0  0  0  0  0  0  0
    2.8660   -0.3097    0.0000 H   0  0  0  0  0  0  0  0  0  0  0  0
    2.8660   -3.5497    0.0000 H   0  0  0  0  0  0  0  0  0  0  0  0
    1.4631   -1.1197    0.0000 H   0  0  0  0  0  0  0  0  0  0  0  0
    1.4631   -2.7397    0.0000 H   0  0  0  0  0  0  0  0  0  0  0  0
  1 10  2  0  0  0  0
  2  5  1  0  0  0  0
  2 10  1  0  0  0  0
  2 12  1  0  0  0  0
  3 16  1  0  0  0  0
  3 17  1  0  0  0  0
  3 43  1  0  0  0  0
  4  5  1  0  0  0  0
  4  6  1  0  0  0  0
  4  7  1  0  0  0  0
  4  8  1  0  0  0  0
  5  9  1  0  0  0  0
  5 22  1  0  0  0  0
  6 29  1  0  0  0  0
  6 30  1  0  0  0  0
  6 31  1  0  0  0  0
  7 26  1  0  0  0  0
  7 27  1  0  0  0  0
  7 28  1  0  0  0  0
  8 23  1  0  0  0  0
  8 24  1  0  0  0  0
  8 25  1  0  0  0  0
  9 32  1  0  0  0  0
  9 33  1  0  0  0  0
  9 34  1  0  0  0  0
 10 11  1  0  0  0  0
 11 13  1  0  0  0  0
 11 35  1  0  0  0  0
 11 36  1  0  0  0  0
 12 37  1  0  0  0  0
 12 38  1  0  0  0  0
 12 39  1  0  0  0  0
 13 14  1  0  0  0  0
 13 40  1  0  0  0  0
 13 41  1  0  0  0  0
 14 15  1  0  0  0  0
 14 17  2  0  0  0  0
 15 16  1  0  0  0  0
 15 18  2  0  0  0  0
 16 19  2  0  0  0  0
 17 42  1  0  0  0  0
 18 20  1  0  0  0  0
 18 44  1  0  0  0  0
 19 21  1  0  0  0  0
 19 45  1  0  0  0  0
 20 21  2  0  0  0  0
 20 46  1  0  0  0  0
 21 47  1  0  0  0  0
M  END
> <PUBCHEM_COMPOUND_CID>
42951903

> <PUBCHEM_COMPOUND_CANONICALIZED>
1

> <PUBCHEM_CACTVS_COMPLEXITY>
361

> <PUBCHEM_CACTVS_HBOND_ACCEPTOR>
1

> <PUBCHEM_CACTVS_HBOND_DONOR>
1

> <PUBCHEM_CACTVS_ROTATABLE_BOND>
5

> <PUBCHEM_CACTVS_SUBSKEYS>
AAADceB7IAAAAAAAAAAAAAAAAAAAAWAAAAAwAAAAAAAAAFgB8AAAHgAQAAAADijBngQ+wPPJkACoAzV3VACCgCAxAiAI2aE4ZJgIIPLAkZGEIAhglgDIyAcYicCPgAAAAAACAAAAAAAAAAQAAAAAAAAAAA==

> <PUBCHEM_IUPAC_OPENEYE_NAME>
3-(1H-indol-3-yl)-N-methyl-N-(1,2,2-trimethylpropyl)propanamide

> <PUBCHEM_IUPAC_CAS_NAME>
N-(3,3-dimethylbutan-2-yl)-3-(1H-indol-3-yl)-N-methylpropanamide

> <PUBCHEM_IUPAC_NAME>
N-(3,3-dimethylbutan-2-yl)-3-(1H-indol-3-yl)-N-methylpropanamide

> <PUBCHEM_IUPAC_SYSTEMATIC_NAME>
N-(3,3-dimethylbutan-2-yl)-3-(1H-indol-3-yl)-N-methyl-propanamide

> <PUBCHEM_IUPAC_TRADITIONAL_NAME>
3-(1H-indol-3-yl)-N-methyl-N-(1,2,2-trimethylpropyl)propionamide

> <PUBCHEM_IUPAC_INCHI>
InChI=1S/C18H26N2O/c1-13(18(2,3)4)20(5)17(21)11-10-14-12-19-16-9-7-6-8-15(14)16/h6-9,12-13,19H,10-11H2,1-5H3

> <PUBCHEM_IUPAC_INCHIKEY>
DGLPBMXEKJBUOI-UHFFFAOYSA-N

> <PUBCHEM_XLOGP3>
3.8

> <PUBCHEM_EXACT_MASS>
286.204513

> <PUBCHEM_MOLECULAR_FORMULA>
C18H26N2O

> <PUBCHEM_MOLECULAR_WEIGHT>
286.41184

> <PUBCHEM_OPENEYE_CAN_SMILES>
CC(C(C)(C)C)N(C)C(=O)CCC1=CNC2=CC=CC=C21

> <PUBCHEM_OPENEYE_ISO_SMILES>
CC(C(C)(C)C)N(C)C(=O)CCC1=CNC2=CC=CC=C21

> <PUBCHEM_CACTVS_TPSA>
36.1

> <PUBCHEM_MONOISOTOPIC_WEIGHT>
286.204513

> <PUBCHEM_TOTAL_CHARGE>
0

> <PUBCHEM_HEAVY_ATOM_COUNT>
21

> <PUBCHEM_ATOM_DEF_STEREO_COUNT>
0

> <PUBCHEM_ATOM_UDEF_STEREO_COUNT>
1

> <PUBCHEM_BOND_DEF_STEREO_COUNT>
0

> <PUBCHEM_BOND_UDEF_STEREO_COUNT>
0

> <PUBCHEM_ISOTOPIC_ATOM_COUNT>
0

> <PUBCHEM_COMPONENT_COUNT>
1

> <PUBCHEM_CACTVS_TAUTO_COUNT>
1

> <PUBCHEM_COORDINATE_TYPE>
1
5
255

> <PUBCHEM_BONDANNOTATIONS>
14  15  8
14  17  8
15  16  8
15  18  8
16  19  8
18  20  8
19  21  8
20  21  8
3  16  8
3  17  8
5  9  3

$$$$
42951930
  -OEChem-11301217512D

 47 48  0     1  0  0  0  0  0999 V2000
    5.6103    1.3684    0.0000 O   0  0  0  0  0  0  0  0  0  0  0  0
    7.2566    0.8304    0.0000 N   0  0  0  0  0  0  0  0  0  0  0  0
    4.6783   -3.0926    0.0000 N   0  0  0  0  0  0  0  0  0  0  0  0
    7.5673    1.7809    0.0000 C   0  0  3  0  0  0  0  0  0  0  0  0
    8.5458    1.9871    0.0000 C   0  0  0  0  0  0  0  0  0  0  0  0
    8.8564    2.9376    0.0000 C   0  0  0  0  0  0  0  0  0  0  0  0
    6.8994    2.5252    0.0000 C   0  0  0  0  0  0  0  0  0  0  0  0
    6.2781    0.6241    0.0000 C   0  0  0  0  0  0  0  0  0  0  0  0
    5.9674   -0.3264    0.0000 C   0  0  0  0  0  0  0  0  0  0  0  0
    9.8349    3.1438    0.0000 C   0  0  0  0  0  0  0  0  0  0  0  0
    8.1886    3.6819    0.0000 C   0  0  0  0  0  0  0  0  0  0  0  0
    4.9889   -0.5326    0.0000 C   0  0  0  0  0  0  0  0  0  0  0  0
    4.6783   -1.4831    0.0000 C   0  0  0  0  0  0  0  0  0  0  0  0
    7.9244    0.0861    0.0000 C   0  0  0  0  0  0  0  0  0  0  0  0
    3.7320   -1.7879    0.0000 C   0  0  0  0  0  0  0  0  0  0  0  0
    3.7320   -2.7879    0.0000 C   0  0  0  0  0  0  0  0  0  0  0  0
    5.2619   -2.2879    0.0000 C   0  0  0  0  0  0  0  0  0  0  0  0
    2.8660   -1.2879    0.0000 C   0  0  0  0  0  0  0  0  0  0  0  0
    2.8660   -3.2879    0.0000 C   0  0  0  0  0  0  0  0  0  0  0  0
    2.0000   -1.7879    0.0000 C   0  0  0  0  0  0  0  0  0  0  0  0
    2.0000   -2.7879    0.0000 C   0  0  0  0  0  0  0  0  0  0  0  0
    6.9606    1.6530    0.0000 H   0  0  0  0  0  0  0  0  0  0  0  0
    8.5663    1.3674    0.0000 H   0  0  0  0  0  0  0  0  0  0  0  0
    9.1596    1.8997    0.0000 H   0  0  0  0  0  0  0  0  0  0  0  0
    9.0490    3.5269    0.0000 H   0  0  0  0  0  0  0  0  0  0  0  0
    7.3609    2.9392    0.0000 H   0  0  0  0  0  0  0  0  0  0  0  0
    6.4854    2.9866    0.0000 H   0  0  0  0  0  0  0  0  0  0  0  0
    6.4380    2.1111    0.0000 H   0  0  0  0  0  0  0  0  0  0  0  0
    5.9880   -0.9460    0.0000 H   0  0  0  0  0  0  0  0  0  0  0  0
    6.5812   -0.4137    0.0000 H   0  0  0  0  0  0  0  0  0  0  0  0
    8.6501    4.0960    0.0000 H   0  0  0  0  0  0  0  0  0  0  0  0
    9.9628    2.5372    0.0000 H   0  0  0  0  0  0  0  0  0  0  0  0
   10.4416    3.2717    0.0000 H   0  0  0  0  0  0  0  0  0  0  0  0
    9.7071    3.7505    0.0000 H   0  0  0  0  0  0  0  0  0  0  0  0
    7.7745    4.1434    0.0000 H   0  0  0  0  0  0  0  0  0  0  0  0
    7.7271    3.2678    0.0000 H   0  0  0  0  0  0  0  0  0  0  0  0
    4.9684    0.0871    0.0000 H   0  0  0  0  0  0  0  0  0  0  0  0
    4.3751   -0.4453    0.0000 H   0  0  0  0  0  0  0  0  0  0  0  0
    7.4630   -0.3280    0.0000 H   0  0  0  0  0  0  0  0  0  0  0  0
    8.3385   -0.3754    0.0000 H   0  0  0  0  0  0  0  0  0  0  0  0
    8.3859    0.5001    0.0000 H   0  0  0  0  0  0  0  0  0  0  0  0
    5.8819   -2.2879    0.0000 H   0  0  0  0  0  0  0  0  0  0  0  0
    4.8709   -3.6819    0.0000 H   0  0  0  0  0  0  0  0  0  0  0  0
    2.8660   -0.6679    0.0000 H   0  0  0  0  0  0  0  0  0  0  0  0
    2.8660   -3.9079    0.0000 H   0  0  0  0  0  0  0  0  0  0  0  0
    1.4631   -1.4779    0.0000 H   0  0  0  0  0  0  0  0  0  0  0  0
    1.4631   -3.0979    0.0000 H   0  0  0  0  0  0  0  0  0  0  0  0
  1  8  2  0  0  0  0
  2  4  1  0  0  0  0
  2  8  1  0  0  0  0
  2 14  1  0  0  0  0
  3 16  1  0  0  0  0
  3 17  1  0  0  0  0
  3 43  1  0  0  0  0
  4  5  1  0  0  0  0
  4  7  1  0  0  0  0
  4 22  1  0  0  0  0
  5  6  1  0  0  0  0
  5 23  1  0  0  0  0
  5 24  1  0  0  0  0
  6 10  1  0  0  0  0
  6 11  1  0  0  0  0
  6 25  1  0  0  0  0
  7 26  1  0  0  0  0
  7 27  1  0  0  0  0
  7 28  1  0  0  0  0
  8  9  1  0  0  0  0
  9 12  1  0  0  0  0
  9 29  1  0  0  0  0
  9 30  1  0  0  0  0
 10 32  1  0  0  0  0
 10 33  1  0  0  0  0
 10 34  1  0  0  0  0
 11 31  1  0  0  0  0
 11 35  1  0  0  0  0
 11 36  1  0  0  0  0
 12 13  1  0  0  0  0
 12 37  1  0  0  0  0
 12 38  1  0  0  0  0
 13 15  1  0  0  0  0
 13 17  2  0  0  0  0
 14 39  1  0  0  0  0
 14 40  1  0  0  0  0
 14 41  1  0  0  0  0
 15 16  1  0  0  0  0
 15 18  2  0  0  0  0
 16 19  2  0  0  0  0
 17 42  1  0  0  0  0
 18 20  1  0  0  0  0
 18 44  1  0  0  0  0
 19 21  1  0  0  0  0
 19 45  1  0  0  0  0
 20 21  2  0  0  0  0
 20 46  1  0  0  0  0
 21 47  1  0  0  0  0
M  END
> <PUBCHEM_COMPOUND_CID>
42951930

> <PUBCHEM_COMPOUND_CANONICALIZED>
1

> <PUBCHEM_CACTVS_COMPLEXITY>
342

> <PUBCHEM_CACTVS_HBOND_ACCEPTOR>
1

> <PUBCHEM_CACTVS_HBOND_DONOR>
1

> <PUBCHEM_CACTVS_ROTATABLE_BOND>
6

> <PUBCHEM_CACTVS_SUBSKEYS>
AAADceB7IAAAAAAAAAAAAAAAAAAAAWAAAAAwAAAAAAAAAFgB8AAAHgAQAAAADSjBngQ+wPPJkACoAzV3VACCgCAxAiAI2aE4ZJgIIPLAkZGEIAhglgDIyAcYicCOgAAAAAACAAAAAAAAAAQAAAAAAAAAAA==

> <PUBCHEM_IUPAC_OPENEYE_NAME>
N-(1,3-dimethylbutyl)-3-(1H-indol-3-yl)-N-methyl-propanamide

> <PUBCHEM_IUPAC_CAS_NAME>
3-(1H-indol-3-yl)-N-methyl-N-(4-methylpentan-2-yl)propanamide

> <PUBCHEM_IUPAC_NAME>
3-(1H-indol-3-yl)-N-methyl-N-(4-methylpentan-2-yl)propanamide

> <PUBCHEM_IUPAC_SYSTEMATIC_NAME>
3-(1H-indol-3-yl)-N-methyl-N-(4-methylpentan-2-yl)propanamide

> <PUBCHEM_IUPAC_TRADITIONAL_NAME>
N-(1,3-dimethylbutyl)-3-(1H-indol-3-yl)-N-methyl-propionamide

> <PUBCHEM_IUPAC_INCHI>
InChI=1S/C18H26N2O/c1-13(2)11-14(3)20(4)18(21)10-9-15-12-19-17-8-6-5-7-16(15)17/h5-8,12-14,19H,9-11H2,1-4H3

> <PUBCHEM_IUPAC_INCHIKEY>
FKCWQWKANODGJF-UHFFFAOYSA-N

> <PUBCHEM_XLOGP3>
3.8

> <PUBCHEM_EXACT_MASS>
286.204513

> <PUBCHEM_MOLECULAR_FORMULA>
C18H26N2O

> <PUBCHEM_MOLECULAR_WEIGHT>
286.41184

> <PUBCHEM_OPENEYE_CAN_SMILES>
CC(C)CC(C)N(C)C(=O)CCC1=CNC2=CC=CC=C21

> <PUBCHEM_OPENEYE_ISO_SMILES>
CC(C)CC(C)N(C)C(=O)CCC1=CNC2=CC=CC=C21

> <PUBCHEM_CACTVS_TPSA>
36.1

> <PUBCHEM_MONOISOTOPIC_WEIGHT>
286.204513

> <PUBCHEM_TOTAL_CHARGE>
0

> <PUBCHEM_HEAVY_ATOM_COUNT>
21

> <PUBCHEM_ATOM_DEF_STEREO_COUNT>
0

> <PUBCHEM_ATOM_UDEF_STEREO_COUNT>
1

> <PUBCHEM_BOND_DEF_STEREO_COUNT>
0

> <PUBCHEM_BOND_UDEF_STEREO_COUNT>
0

> <PUBCHEM_ISOTOPIC_ATOM_COUNT>
0

> <PUBCHEM_COMPONENT_COUNT>
1

> <PUBCHEM_CACTVS_TAUTO_COUNT>
1

> <PUBCHEM_COORDINATE_TYPE>
1
5
255

> <PUBCHEM_BONDANNOTATIONS>
13  15  8
13  17  8
15  16  8
15  18  8
16  19  8
18  20  8
19  21  8
20  21  8
3  16  8
3  17  8
4  7  3

$$$$
42951931
  -OEChem-11301217512D

 44 45  0     1  0  0  0  0  0999 V2000
    6.6353   -0.6985    0.0000 O   0  0  0  0  0  0  0  0  0  0  0  0
    6.2781    0.9963    0.0000 N   0  0  0  0  0  0  0  0  0  0  0  0
    4.6783   -2.7204    0.0000 N   0  0  0  0  0  0  0  0  0  0  0  0
    7.2566    1.2025    0.0000 C   0  0  3  0  0  0  0  0  0  0  0  0
    7.5673    2.1530    0.0000 C   0  0  0  0  0  0  0  0  0  0  0  0
    8.5458    2.3592    0.0000 C   0  0  0  0  0  0  0  0  0  0  0  0
    7.9244    0.4582    0.0000 C   0  0  0  0  0  0  0  0  0  0  0  0
    8.8564    3.3098    0.0000 C   0  0  0  0  0  0  0  0  0  0  0  0
    9.2136    1.6149    0.0000 C   0  0  0  0  0  0  0  0  0  0  0  0
    5.9674    0.0458    0.0000 C   0  0  0  0  0  0  0  0  0  0  0  0
    4.9889   -0.1605    0.0000 C   0  0  0  0  0  0  0  0  0  0  0  0
    5.6103    1.7406    0.0000 C   0  0  0  0  0  0  0  0  0  0  0  0
    4.6783   -1.1110    0.0000 C   0  0  0  0  0  0  0  0  0  0  0  0
    3.7320   -1.4157    0.0000 C   0  0  0  0  0  0  0  0  0  0  0  0
    3.7320   -2.4157    0.0000 C   0  0  0  0  0  0  0  0  0  0  0  0
    5.2619   -1.9157    0.0000 C   0  0  0  0  0  0  0  0  0  0  0  0
    2.8660   -0.9157    0.0000 C   0  0  0  0  0  0  0  0  0  0  0  0
    2.8660   -2.9157    0.0000 C   0  0  0  0  0  0  0  0  0  0  0  0
    2.0000   -1.4157    0.0000 C   0  0  0  0  0  0  0  0  0  0  0  0
    2.0000   -2.4157    0.0000 C   0  0  0  0  0  0  0  0  0  0  0  0
    7.0640    0.6132    0.0000 H   0  0  0  0  0  0  0  0  0  0  0  0
    7.5467    2.7727    0.0000 H   0  0  0  0  0  0  0  0  0  0  0  0
    6.9534    2.2404    0.0000 H   0  0  0  0  0  0  0  0  0  0  0  0
    8.3532    1.7699    0.0000 H   0  0  0  0  0  0  0  0  0  0  0  0
    7.4630    0.0441    0.0000 H   0  0  0  0  0  0  0  0  0  0  0  0
    8.3385   -0.0033    0.0000 H   0  0  0  0  0  0  0  0  0  0  0  0
    8.3859    0.8723    0.0000 H   0  0  0  0  0  0  0  0  0  0  0  0
    8.7522    1.2009    0.0000 H   0  0  0  0  0  0  0  0  0  0  0  0
    9.4458    3.1172    0.0000 H   0  0  0  0  0  0  0  0  0  0  0  0
    9.0490    3.8991    0.0000 H   0  0  0  0  0  0  0  0  0  0  0  0
    8.2671    3.5024    0.0000 H   0  0  0  0  0  0  0  0  0  0  0  0
    9.6277    1.1535    0.0000 H   0  0  0  0  0  0  0  0  0  0  0  0
    9.6751    2.0290    0.0000 H   0  0  0  0  0  0  0  0  0  0  0  0
    4.9684    0.4592    0.0000 H   0  0  0  0  0  0  0  0  0  0  0  0
    4.3751   -0.0731    0.0000 H   0  0  0  0  0  0  0  0  0  0  0  0
    6.0717    2.1546    0.0000 H   0  0  0  0  0  0  0  0  0  0  0  0
    5.1962    2.2020    0.0000 H   0  0  0  0  0  0  0  0  0  0  0  0
    5.1488    1.3265    0.0000 H   0  0  0  0  0  0  0  0  0  0  0  0
    5.8819   -1.9157    0.0000 H   0  0  0  0  0  0  0  0  0  0  0  0
    4.8709   -3.3098    0.0000 H   0  0  0  0  0  0  0  0  0  0  0  0
    2.8660   -0.2957    0.0000 H   0  0  0  0  0  0  0  0  0  0  0  0
    2.8660   -3.5357    0.0000 H   0  0  0  0  0  0  0  0  0  0  0  0
    1.4631   -1.1057    0.0000 H   0  0  0  0  0  0  0  0  0  0  0  0
    1.4631   -2.7257    0.0000 H   0  0  0  0  0  0  0  0  0  0  0  0
  1 10  2  0  0  0  0
  2  4  1  0  0  0  0
  2 10  1  0  0  0  0
  2 12  1  0  0  0  0
  3 15  1  0  0  0  0
  3 16  1  0  0  0  0
  3 40  1  0  0  0  0
  4  5  1  0  0  0  0
  4  7  1  0  0  0  0
  4 21  1  0  0  0  0
  5  6  1  0  0  0  0
  5 22  1  0  0  0  0
  5 23  1  0  0  0  0
  6  8  1  0  0  0  0
  6  9  1  0  0  0  0
  6 24  1  0  0  0  0
  7 25  1  0  0  0  0
  7 26  1  0  0  0  0
  7 27  1  0  0  0  0
  8 29  1  0  0  0  0
  8 30  1  0  0  0  0
  8 31  1  0  0  0  0
  9 28  1  0  0  0  0
  9 32  1  0  0  0  0
  9 33  1  0  0  0  0
 10 11  1  0  0  0  0
 11 13  1  0  0  0  0
 11 34  1  0  0  0  0
 11 35  1  0  0  0  0
 12 36  1  0  0  0  0
 12 37  1  0  0  0  0
 12 38  1  0  0  0  0
 13 14  1  0  0  0  0
 13 16  2  0  0  0  0
 14 15  1  0  0  0  0
 14 17  2  0  0  0  0
 15 18  2  0  0  0  0
 16 39  1  0  0  0  0
 17 19  1  0  0  0  0
 17 41  1  0  0  0  0
 18 20  1  0  0  0  0
 18 42  1  0  0  0  0
 19 20  2  0  0  0  0
 19 43  1  0  0  0  0
 20 44  1  0  0  0  0
M  END
> <PUBCHEM_COMPOUND_CID>
42951931

> <PUBCHEM_COMPOUND_CANONICALIZED>
1

> <PUBCHEM_CACTVS_COMPLEXITY>
329

> <PUBCHEM_CACTVS_HBOND_ACCEPTOR>
1

> <PUBCHEM_CACTVS_HBOND_DONOR>
1

> <PUBCHEM_CACTVS_ROTATABLE_BOND>
5

> <PUBCHEM_CACTVS_SUBSKEYS>
AAADceB7IAAAAAAAAAAAAAAAAAAAAWAAAAAwAAAAAAAAAFgB8AAAHgAQAAAADSjBngQ+wPPJkACoAzV3VACCgCAxAiAI2aE4ZJgIIPLAlZGEIAhglgDIyAccicCegAAAAAACAAAAAAAAAAQAAAAAAAAAAA==

> <PUBCHEM_IUPAC_OPENEYE_NAME>
N-(1,3-dimethylbutyl)-2-(1H-indol-3-yl)-N-methyl-acetamide

> <PUBCHEM_IUPAC_CAS_NAME>
2-(1H-indol-3-yl)-N-methyl-N-(4-methylpentan-2-yl)acetamide

> <PUBCHEM_IUPAC_NAME>
2-(1H-indol-3-yl)-N-methyl-N-(4-methylpentan-2-yl)acetamide

> <PUBCHEM_IUPAC_SYSTEMATIC_NAME>
2-(1H-indol-3-yl)-N-methyl-N-(4-methylpentan-2-yl)ethanamide

> <PUBCHEM_IUPAC_TRADITIONAL_NAME>
N-(1,3-dimethylbutyl)-2-(1H-indol-3-yl)-N-methyl-acetamide

> <PUBCHEM_IUPAC_INCHI>
InChI=1S/C17H24N2O/c1-12(2)9-13(3)19(4)17(20)10-14-11-18-16-8-6-5-7-15(14)16/h5-8,11-13,18H,9-10H2,1-4H3

> <PUBCHEM_IUPAC_INCHIKEY>
MPOMSLFWJYWQGQ-UHFFFAOYSA-N

> <PUBCHEM_XLOGP3>
3.5

> <PUBCHEM_EXACT_MASS>
272.188863

> <PUBCHEM_MOLECULAR_FORMULA>
C17H24N2O

> <PUBCHEM_MOLECULAR_WEIGHT>
272.38526

> <PUBCHEM_OPENEYE_CAN_SMILES>
CC(C)CC(C)N(C)C(=O)CC1=CNC2=CC=CC=C21

> <PUBCHEM_OPENEYE_ISO_SMILES>
CC(C)CC(C)N(C)C(=O)CC1=CNC2=CC=CC=C21

> <PUBCHEM_CACTVS_TPSA>
36.1

> <PUBCHEM_MONOISOTOPIC_WEIGHT>
272.188863

> <PUBCHEM_TOTAL_CHARGE>
0

> <PUBCHEM_HEAVY_ATOM_COUNT>
20

> <PUBCHEM_ATOM_DEF_STEREO_COUNT>
0

> <PUBCHEM_ATOM_UDEF_STEREO_COUNT>
1

> <PUBCHEM_BOND_DEF_STEREO_COUNT>
0

> <PUBCHEM_BOND_UDEF_STEREO_COUNT>
0

> <PUBCHEM_ISOTOPIC_ATOM_COUNT>
0

> <PUBCHEM_COMPONENT_COUNT>
1

> <PUBCHEM_CACTVS_TAUTO_COUNT>
1

> <PUBCHEM_COORDINATE_TYPE>
1
5
255

> <PUBCHEM_BONDANNOTATIONS>
13  14  8
13  16  8
14  15  8
14  17  8
15  18  8
17  19  8
18  20  8
19  20  8
3  15  8
3  16  8
4  7  3

$$$$
42952669
  -OEChem-11301217512D

 40 41  0     1  0  0  0  0  0999 V2000
    6.6353   -0.8956    0.0000 O   0  0  0  0  0  0  0  0  0  0  0  0
    4.9889   -0.3575    0.0000 N   0  0  0  0  0  0  0  0  0  0  0  0
    6.2781    0.7993    0.0000 N   0  0  0  0  0  0  0  0  0  0  0  0
    4.6783   -1.3080    0.0000 C   0  0  3  0  0  0  0  0  0  0  0  0
    5.2619   -2.1127    0.0000 C   0  0  0  0  0  0  0  0  0  0  0  0
    4.6783   -2.9175    0.0000 C   0  0  0  0  0  0  0  0  0  0  0  0
    3.7320   -1.6127    0.0000 C   0  0  0  0  0  0  0  0  0  0  0  0
    3.7320   -2.6127    0.0000 C   0  0  0  0  0  0  0  0  0  0  0  0
    2.8660   -1.1127    0.0000 C   0  0  0  0  0  0  0  0  0  0  0  0
    7.2566    1.0055    0.0000 C   0  0  3  0  0  0  0  0  0  0  0  0
    2.8660   -3.1127    0.0000 C   0  0  0  0  0  0  0  0  0  0  0  0
    7.5673    1.9560    0.0000 C   0  0  0  0  0  0  0  0  0  0  0  0
    5.9674   -0.1513    0.0000 C   0  0  0  0  0  0  0  0  0  0  0  0
    2.0000   -1.6127    0.0000 C   0  0  0  0  0  0  0  0  0  0  0  0
    2.0000   -2.6127    0.0000 C   0  0  0  0  0  0  0  0  0  0  0  0
    8.5458    2.1622    0.0000 C   0  0  0  0  0  0  0  0  0  0  0  0
    7.9244    0.2612    0.0000 C   0  0  0  0  0  0  0  0  0  0  0  0
    8.8564    3.1127    0.0000 C   0  0  0  0  0  0  0  0  0  0  0  0
    5.2908   -1.2118    0.0000 H   0  0  0  0  0  0  0  0  0  0  0  0
    5.7227   -2.5275    0.0000 H   0  0  0  0  0  0  0  0  0  0  0  0
    5.7227   -1.6980    0.0000 H   0  0  0  0  0  0  0  0  0  0  0  0
    4.4272   -3.4844    0.0000 H   0  0  0  0  0  0  0  0  0  0  0  0
    5.2156   -3.2267    0.0000 H   0  0  0  0  0  0  0  0  0  0  0  0
    4.5749    0.1040    0.0000 H   0  0  0  0  0  0  0  0  0  0  0  0
    7.0640    0.4162    0.0000 H   0  0  0  0  0  0  0  0  0  0  0  0
    2.8660   -0.4927    0.0000 H   0  0  0  0  0  0  0  0  0  0  0  0
    2.8660   -3.7327    0.0000 H   0  0  0  0  0  0  0  0  0  0  0  0
    7.5467    2.5756    0.0000 H   0  0  0  0  0  0  0  0  0  0  0  0
    6.9534    2.0434    0.0000 H   0  0  0  0  0  0  0  0  0  0  0  0
    5.8640    1.2607    0.0000 H   0  0  0  0  0  0  0  0  0  0  0  0
    1.4631   -1.3027    0.0000 H   0  0  0  0  0  0  0  0  0  0  0  0
    1.4631   -2.9227    0.0000 H   0  0  0  0  0  0  0  0  0  0  0  0
    8.5663    1.5426    0.0000 H   0  0  0  0  0  0  0  0  0  0  0  0
    9.1596    2.0749    0.0000 H   0  0  0  0  0  0  0  0  0  0  0  0
    7.4630   -0.1529    0.0000 H   0  0  0  0  0  0  0  0  0  0  0  0
    8.3385   -0.2003    0.0000 H   0  0  0  0  0  0  0  0  0  0  0  0
    8.3859    0.6752    0.0000 H   0  0  0  0  0  0  0  0  0  0  0  0
    9.4458    2.9201    0.0000 H   0  0  0  0  0  0  0  0  0  0  0  0
    9.0490    3.7021    0.0000 H   0  0  0  0  0  0  0  0  0  0  0  0
    8.2671    3.3054    0.0000 H   0  0  0  0  0  0  0  0  0  0  0  0
  1 13  2  0  0  0  0
  2  4  1  0  0  0  0
  2 13  1  0  0  0  0
  2 24  1  0  0  0  0
  3 10  1  0  0  0  0
  3 13  1  0  0  0  0
  3 30  1  0  0  0  0
  4  5  1  0  0  0  0
  4  7  1  0  0  0  0
  4 19  1  0  0  0  0
  5  6  1  0  0  0  0
  5 20  1  0  0  0  0
  5 21  1  0  0  0  0
  6  8  1  0  0  0  0
  6 22  1  0  0  0  0
  6 23  1  0  0  0  0
  7  8  1  0  0  0  0
  7  9  2  0  0  0  0
  8 11  2  0  0  0  0
  9 14  1  0  0  0  0
  9 26  1  0  0  0  0
 10 12  1  0  0  0  0
 10 17  1  0  0  0  0
 10 25  1  0  0  0  0
 11 15  1  0  0  0  0
 11 27  1  0  0  0  0
 12 16  1  0  0  0  0
 12 28  1  0  0  0  0
 12 29  1  0  0  0  0
 14 15  2  0  0  0  0
 14 31  1  0  0  0  0
 15 32  1  0  0  0  0
 16 18  1  0  0  0  0
 16 33  1  0  0  0  0
 16 34  1  0  0  0  0
 17 35  1  0  0  0  0
 17 36  1  0  0  0  0
 17 37  1  0  0  0  0
 18 38  1  0  0  0  0
 18 39  1  0  0  0  0
 18 40  1  0  0  0  0
M  END
> <PUBCHEM_COMPOUND_CID>
42952669

> <PUBCHEM_COMPOUND_CANONICALIZED>
1

> <PUBCHEM_CACTVS_COMPLEXITY>
280

> <PUBCHEM_CACTVS_HBOND_ACCEPTOR>
1

> <PUBCHEM_CACTVS_HBOND_DONOR>
2

> <PUBCHEM_CACTVS_ROTATABLE_BOND>
4

> <PUBCHEM_CACTVS_SUBSKEYS>
AAADceBzIAAAAAAAAAAAAAAAAAAAAYAAAAAwAAAAAAAAAGABAAAAHgAQAAAADCjBGAQzAILAAACIAiBCEACCAAAgAAAIiIAIBIiIICKAkRGEIAholgIIiAcQgIAOgAAAAAAQAAAAAAAAACAAACAACQAAAA==

> <PUBCHEM_IUPAC_OPENEYE_NAME>
1-indan-1-yl-3-(1-methylbutyl)urea

> <PUBCHEM_IUPAC_CAS_NAME>
1-(2,3-dihydro-1H-inden-1-yl)-3-pentan-2-ylurea

> <PUBCHEM_IUPAC_NAME>
1-(2,3-dihydro-1H-inden-1-yl)-3-pentan-2-ylurea

> <PUBCHEM_IUPAC_SYSTEMATIC_NAME>
1-(2,3-dihydro-1H-inden-1-yl)-3-pentan-2-yl-urea

> <PUBCHEM_IUPAC_TRADITIONAL_NAME>
1-indan-1-yl-3-(1-methylbutyl)urea

> <PUBCHEM_IUPAC_INCHI>
InChI=1S/C15H22N2O/c1-3-6-11(2)16-15(18)17-14-10-9-12-7-4-5-8-13(12)14/h4-5,7-8,11,14H,3,6,9-10H2,1-2H3,(H2,16,17,18)

> <PUBCHEM_IUPAC_INCHIKEY>
QHRPPWSYNBBGQT-UHFFFAOYSA-N

> <PUBCHEM_XLOGP3>
3.5

> <PUBCHEM_EXACT_MASS>
246.173213

> <PUBCHEM_MOLECULAR_FORMULA>
C15H22N2O

> <PUBCHEM_MOLECULAR_WEIGHT>
246.34798

> <PUBCHEM_OPENEYE_CAN_SMILES>
CCCC(C)NC(=O)NC1CCC2=CC=CC=C12

> <PUBCHEM_OPENEYE_ISO_SMILES>
CCCC(C)NC(=O)NC1CCC2=CC=CC=C12

> <PUBCHEM_CACTVS_TPSA>
41.1

> <PUBCHEM_MONOISOTOPIC_WEIGHT>
246.173213

> <PUBCHEM_TOTAL_CHARGE>
0

> <PUBCHEM_HEAVY_ATOM_COUNT>
18

> <PUBCHEM_ATOM_DEF_STEREO_COUNT>
0

> <PUBCHEM_ATOM_UDEF_STEREO_COUNT>
2

> <PUBCHEM_BOND_DEF_STEREO_COUNT>
0

> <PUBCHEM_BOND_UDEF_STEREO_COUNT>
0

> <PUBCHEM_ISOTOPIC_ATOM_COUNT>
0

> <PUBCHEM_COMPONENT_COUNT>
1

> <PUBCHEM_CACTVS_TAUTO_COUNT>
3

> <PUBCHEM_COORDINATE_TYPE>
1
5
255

> <PUBCHEM_BONDANNOTATIONS>
10  17  3
11  15  8
14  15  8
4  2  3
7  8  8
7  9  8
8  11  8
9  14  8

$$$$
42957253
  -OEChem-11301217522D

 40 43  0     1  0  0  0  0  0999 V2000
    6.4227    0.9020    0.0000 O   0  0  0  0  0  0  0  0  0  0  0  0
    7.2888   -0.5980    0.0000 N   0  0  0  0  0  0  0  0  0  0  0  0
   10.8330    1.2067    0.0000 N   0  0  0  0  0  0  0  0  0  0  0  0
    3.6248   -0.0804    0.0000 C   0  0  3  0  0  0  0  0  0  0  0  0
    2.7588   -0.5804    0.0000 C   0  0  3  0  0  0  0  0  0  0  0  0
    2.5849   -1.7960    0.0000 C   0  0  0  0  0  0  0  0  0  0  0  0
    5.5567   -0.5980    0.0000 C   0  0  3  0  0  0  0  0  0  0  0  0
    5.2979   -1.5639    0.0000 C   0  0  0  0  0  0  0  0  0  0  0  0
    2.8660    1.7516    0.0000 C   0  0  0  0  0  0  0  0  0  0  0  0
    2.0000    1.2516    0.0000 C   0  0  0  0  0  0  0  0  0  0  0  0
    6.4227   -0.0980    0.0000 C   0  0  0  0  0  0  0  0  0  0  0  0
    8.1548   -0.0980    0.0000 C   0  0  0  0  0  0  0  0  0  0  0  0
    9.0208   -0.5980    0.0000 C   0  0  0  0  0  0  0  0  0  0  0  0
    8.1548    0.9020    0.0000 C   0  0  0  0  0  0  0  0  0  0  0  0
    9.8868   -0.0980    0.0000 C   0  0  0  0  0  0  0  0  0  0  0  0
    9.8868    0.9020    0.0000 C   0  0  0  0  0  0  0  0  0  0  0  0
    9.0208    1.4020    0.0000 C   0  0  0  0  0  0  0  0  0  0  0  0
   10.8330   -0.4027    0.0000 C   0  0  0  0  0  0  0  0  0  0  0  0
   11.4167    0.4020    0.0000 C   0  0  0  0  0  0  0  0  0  0  0  0
   12.4167    0.4020    0.0000 C   0  0  0  0  0  0  0  0  0  0  0  0
    4.0336    0.3858    0.0000 H   0  0  0  0  0  0  0  0  0  0  0  0
    3.1921   -0.1369    0.0000 H   0  0  0  0  0  0  0  0  0  0  0  0
    1.9837   -1.9478    0.0000 H   0  0  0  0  0  0  0  0  0  0  0  0
    2.9534   -2.2946    0.0000 H   0  0  0  0  0  0  0  0  0  0  0  0
    6.0486   -0.9754    0.0000 H   0  0  0  0  0  0  0  0  0  0  0  0
    5.0948   -2.1497    0.0000 H   0  0  0  0  0  0  0  0  0  0  0  0
    5.8906   -1.7458    0.0000 H   0  0  0  0  0  0  0  0  0  0  0  0
    3.4279    2.0136    0.0000 H   0  0  0  0  0  0  0  0  0  0  0  0
    2.5797    2.3015    0.0000 H   0  0  0  0  0  0  0  0  0  0  0  0
    1.7137    1.8015    0.0000 H   0  0  0  0  0  0  0  0  0  0  0  0
    1.4381    0.9896    0.0000 H   0  0  0  0  0  0  0  0  0  0  0  0
    7.2888   -1.2180    0.0000 H   0  0  0  0  0  0  0  0  0  0  0  0
    9.0208   -1.2180    0.0000 H   0  0  0  0  0  0  0  0  0  0  0  0
    7.6178    1.2120    0.0000 H   0  0  0  0  0  0  0  0  0  0  0  0
    9.0208    2.0220    0.0000 H   0  0  0  0  0  0  0  0  0  0  0  0
   11.0257   -0.9921    0.0000 H   0  0  0  0  0  0  0  0  0  0  0  0
   11.0257    1.7960    0.0000 H   0  0  0  0  0  0  0  0  0  0  0  0
   12.4167   -0.2180    0.0000 H   0  0  0  0  0  0  0  0  0  0  0  0
   13.0367    0.4020    0.0000 H   0  0  0  0  0  0  0  0  0  0  0  0
   12.4167    1.0220    0.0000 H   0  0  0  0  0  0  0  0  0  0  0  0
  1 11  2  0  0  0  0
  2 11  1  0  0  0  0
  2 12  1  0  0  0  0
  2 32  1  0  0  0  0
  3 16  1  0  0  0  0
  3 19  1  0  0  0  0
  3 37  1  0  0  0  0
  4  6  1  0  0  0  0
  4  7  1  0  0  0  0
  4  9  1  0  0  0  0
  4 21  1  0  0  0  0
  5  6  1  0  0  0  0
  5  8  1  0  0  0  0
  5 10  1  0  0  0  0
  5 22  1  0  0  0  0
  6 23  1  0  0  0  0
  6 24  1  0  0  0  0
  7  8  1  0  0  0  0
  7 11  1  0  0  0  0
  7 25  1  0  0  0  0
  8 26  1  0  0  0  0
  8 27  1  0  0  0  0
  9 10  1  0  0  0  0
  9 28  1  0  0  0  0
  9 29  1  0  0  0  0
 10 30  1  0  0  0  0
 10 31  1  0  0  0  0
 12 13  2  0  0  0  0
 12 14  1  0  0  0  0
 13 15  1  0  0  0  0
 13 33  1  0  0  0  0
 14 17  2  0  0  0  0
 14 34  1  0  0  0  0
 15 16  2  0  0  0  0
 15 18  1  0  0  0  0
 16 17  1  0  0  0  0
 17 35  1  0  0  0  0
 18 19  2  0  0  0  0
 18 36  1  0  0  0  0
 19 20  1  0  0  0  0
 20 38  1  0  0  0  0
 20 39  1  0  0  0  0
 20 40  1  0  0  0  0
M  END
> <PUBCHEM_COMPOUND_CID>
42957253

> <PUBCHEM_COMPOUND_CANONICALIZED>
1

> <PUBCHEM_CACTVS_COMPLEXITY>
397

> <PUBCHEM_CACTVS_HBOND_ACCEPTOR>
1

> <PUBCHEM_CACTVS_HBOND_DONOR>
2

> <PUBCHEM_CACTVS_ROTATABLE_BOND>
2

> <PUBCHEM_CACTVS_SUBSKEYS>
AAADceB7IAAAAAAAAAAAAAAAAAAAAeMEAAAwYAAAAAAAAFgB8AAAHgAQAAAADQiBngAywPLJkACoAyVyVACCgCAhAiAImSEwZJgIIPLAkZGEIAhglADIyAcYiMCOgACAQAACAAAAAQSAACQAAQAACAAAAA==

> <PUBCHEM_IUPAC_OPENEYE_NAME>
N-(2-methyl-1H-indol-5-yl)norbornane-2-carboxamide

> <PUBCHEM_IUPAC_CAS_NAME>
N-(2-methyl-1H-indol-5-yl)-3-bicyclo[2.2.1]heptanecarboxamide

> <PUBCHEM_IUPAC_NAME>
N-(2-methyl-1H-indol-5-yl)bicyclo[2.2.1]heptane-3-carboxamide

> <PUBCHEM_IUPAC_SYSTEMATIC_NAME>
N-(2-methyl-1H-indol-5-yl)bicyclo[2.2.1]heptane-3-carboxamide

> <PUBCHEM_IUPAC_TRADITIONAL_NAME>
N-(2-methyl-1H-indol-5-yl)norbornane-2-carboxamide

> <PUBCHEM_IUPAC_INCHI>
InChI=1S/C17H20N2O/c1-10-6-13-9-14(4-5-16(13)18-10)19-17(20)15-8-11-2-3-12(15)7-11/h4-6,9,11-12,15,18H,2-3,7-8H2,1H3,(H,19,20)

> <PUBCHEM_IUPAC_INCHIKEY>
BVNFJECAQANATP-UHFFFAOYSA-N

> <PUBCHEM_XLOGP3>
3.2

> <PUBCHEM_EXACT_MASS>
268.157563

> <PUBCHEM_MOLECULAR_FORMULA>
C17H20N2O

> <PUBCHEM_MOLECULAR_WEIGHT>
268.3535

> <PUBCHEM_OPENEYE_CAN_SMILES>
CC1=CC2=C(N1)C=CC(=C2)NC(=O)C3CC4CCC3C4

> <PUBCHEM_OPENEYE_ISO_SMILES>
CC1=CC2=C(N1)C=CC(=C2)NC(=O)C3CC4CCC3C4

> <PUBCHEM_CACTVS_TPSA>
44.9

> <PUBCHEM_MONOISOTOPIC_WEIGHT>
268.157563

> <PUBCHEM_TOTAL_CHARGE>
0

> <PUBCHEM_HEAVY_ATOM_COUNT>
20

> <PUBCHEM_ATOM_DEF_STEREO_COUNT>
0

> <PUBCHEM_ATOM_UDEF_STEREO_COUNT>
3

> <PUBCHEM_BOND_DEF_STEREO_COUNT>
0

> <PUBCHEM_BOND_UDEF_STEREO_COUNT>
0

> <PUBCHEM_ISOTOPIC_ATOM_COUNT>
0

> <PUBCHEM_COMPONENT_COUNT>
1

> <PUBCHEM_CACTVS_TAUTO_COUNT>
3

> <PUBCHEM_COORDINATE_TYPE>
1
5
255

> <PUBCHEM_BONDANNOTATIONS>
12  13  8
12  14  8
13  15  8
14  17  8
15  16  8
15  18  8
16  17  8
18  19  8
3  16  8
3  19  8
4  9  3
5  10  3
7  11  3

$$$$
