8965666
  -OEChem-11301217062D

 51 53  0     0  0  0  0  0  0999 V2000
    6.1906   -0.5617    0.0000 O   0  0  0  0  0  0  0  0  0  0  0  0
    5.1906    1.1703    0.0000 N   0  3  0  0  0  0  0  0  0  0  0  0
    7.6906    0.3043    0.0000 N   0  0  0  0  0  0  0  0  0  0  0  0
    4.1906    1.1703    0.0000 C   0  0  0  0  0  0  0  0  0  0  0  0
    3.7568    0.2693    0.0000 C   0  0  0  0  0  0  0  0  0  0  0  0
    3.7568    2.0713    0.0000 C   0  0  0  0  0  0  0  0  0  0  0  0
    2.7818    0.0468    0.0000 C   0  0  0  0  0  0  0  0  0  0  0  0
    2.7818    2.2938    0.0000 C   0  0  0  0  0  0  0  0  0  0  0  0
    2.0000    1.6703    0.0000 C   0  0  0  0  0  0  0  0  0  0  0  0
    2.0000    0.6703    0.0000 C   0  0  0  0  0  0  0  0  0  0  0  0
    6.1906    1.1703    0.0000 C   0  0  0  0  0  0  0  0  0  0  0  0
    6.6906    0.3043    0.0000 C   0  0  0  0  0  0  0  0  0  0  0  0
    8.1906   -0.5617    0.0000 C   0  0  0  0  0  0  0  0  0  0  0  0
    9.1906   -0.5617    0.0000 C   0  0  0  0  0  0  0  0  0  0  0  0
    7.6906   -1.4278    0.0000 C   0  0  0  0  0  0  0  0  0  0  0  0
    9.6906    0.3043    0.0000 C   0  0  0  0  0  0  0  0  0  0  0  0
    9.6906   -1.4278    0.0000 C   0  0  0  0  0  0  0  0  0  0  0  0
    8.1906   -2.2938    0.0000 C   0  0  0  0  0  0  0  0  0  0  0  0
    9.1906   -2.2938    0.0000 C   0  0  0  0  0  0  0  0  0  0  0  0
    9.1906    1.1703    0.0000 C   0  0  0  0  0  0  0  0  0  0  0  0
   10.6906    0.3043    0.0000 C   0  0  0  0  0  0  0  0  0  0  0  0
    9.6906    2.0363    0.0000 C   0  0  0  0  0  0  0  0  0  0  0  0
   11.1906    1.1703    0.0000 C   0  0  0  0  0  0  0  0  0  0  0  0
   10.6906    2.0363    0.0000 C   0  0  0  0  0  0  0  0  0  0  0  0
    4.5205    0.6453    0.0000 H   0  0  0  0  0  0  0  0  0  0  0  0
    3.7568   -0.3507    0.0000 H   0  0  0  0  0  0  0  0  0  0  0  0
    4.3612    0.1314    0.0000 H   0  0  0  0  0  0  0  0  0  0  0  0
    4.3612    2.2092    0.0000 H   0  0  0  0  0  0  0  0  0  0  0  0
    3.7568    2.6913    0.0000 H   0  0  0  0  0  0  0  0  0  0  0  0
    2.2971   -0.3397    0.0000 H   0  0  0  0  0  0  0  0  0  0  0  0
    3.0508   -0.5118    0.0000 H   0  0  0  0  0  0  0  0  0  0  0  0
    3.0508    2.8524    0.0000 H   0  0  0  0  0  0  0  0  0  0  0  0
    2.2971    2.6804    0.0000 H   0  0  0  0  0  0  0  0  0  0  0  0
    5.1906    0.5503    0.0000 H   0  0  0  0  0  0  0  0  0  0  0  0
    5.1906    1.7903    0.0000 H   0  0  0  0  0  0  0  0  0  0  0  0
    1.3955    0.8083    0.0000 H   0  0  0  0  0  0  0  0  0  0  0  0
    1.7310    0.1117    0.0000 H   0  0  0  0  0  0  0  0  0  0  0  0
    1.7310    2.2289    0.0000 H   0  0  0  0  0  0  0  0  0  0  0  0
    1.3955    1.5323    0.0000 H   0  0  0  0  0  0  0  0  0  0  0  0
    6.7732    1.3824    0.0000 H   0  0  0  0  0  0  0  0  0  0  0  0
    6.0830    1.7809    0.0000 H   0  0  0  0  0  0  0  0  0  0  0  0
    8.0006    0.8412    0.0000 H   0  0  0  0  0  0  0  0  0  0  0  0
    7.0706   -1.4278    0.0000 H   0  0  0  0  0  0  0  0  0  0  0  0
   10.3106   -1.4278    0.0000 H   0  0  0  0  0  0  0  0  0  0  0  0
    7.8806   -2.8307    0.0000 H   0  0  0  0  0  0  0  0  0  0  0  0
    9.5006   -2.8307    0.0000 H   0  0  0  0  0  0  0  0  0  0  0  0
    8.5706    1.1703    0.0000 H   0  0  0  0  0  0  0  0  0  0  0  0
   11.0006   -0.2327    0.0000 H   0  0  0  0  0  0  0  0  0  0  0  0
    9.3806    2.5733    0.0000 H   0  0  0  0  0  0  0  0  0  0  0  0
   11.8106    1.1703    0.0000 H   0  0  0  0  0  0  0  0  0  0  0  0
   11.0006    2.5733    0.0000 H   0  0  0  0  0  0  0  0  0  0  0  0
  1 12  2  0  0  0  0
  2  4  1  0  0  0  0
  2 11  1  0  0  0  0
  2 34  1  0  0  0  0
  2 35  1  0  0  0  0
  3 12  1  0  0  0  0
  3 13  1  0  0  0  0
  3 42  1  0  0  0  0
  4  5  1  0  0  0  0
  4  6  1  0  0  0  0
  4 25  1  0  0  0  0
  5  7  1  0  0  0  0
  5 26  1  0  0  0  0
  5 27  1  0  0  0  0
  6  8  1  0  0  0  0
  6 28  1  0  0  0  0
  6 29  1  0  0  0  0
  7 10  1  0  0  0  0
  7 30  1  0  0  0  0
  7 31  1  0  0  0  0
  8  9  1  0  0  0  0
  8 32  1  0  0  0  0
  8 33  1  0  0  0  0
  9 10  1  0  0  0  0
  9 38  1  0  0  0  0
  9 39  1  0  0  0  0
 10 36  1  0  0  0  0
 10 37  1  0  0  0  0
 11 12  1  0  0  0  0
 11 40  1  0  0  0  0
 11 41  1  0  0  0  0
 13 14  1  0  0  0  0
 13 15  2  0  0  0  0
 14 16  1  0  0  0  0
 14 17  2  0  0  0  0
 15 18  1  0  0  0  0
 15 43  1  0  0  0  0
 16 20  2  0  0  0  0
 16 21  1  0  0  0  0
 17 19  1  0  0  0  0
 17 44  1  0  0  0  0
 18 19  2  0  0  0  0
 18 45  1  0  0  0  0
 19 46  1  0  0  0  0
 20 22  1  0  0  0  0
 20 47  1  0  0  0  0
 21 23  2  0  0  0  0
 21 48  1  0  0  0  0
 22 24  2  0  0  0  0
 22 49  1  0  0  0  0
 23 24  1  0  0  0  0
 23 50  1  0  0  0  0
 24 51  1  0  0  0  0
M  CHG  1   2   1
M  END
> <PUBCHEM_COMPOUND_CID>
8965666

> <PUBCHEM_COMPOUND_CANONICALIZED>
1

> <PUBCHEM_CACTVS_COMPLEXITY>
370

> <PUBCHEM_CACTVS_HBOND_ACCEPTOR>
1

> <PUBCHEM_CACTVS_HBOND_DONOR>
2

> <PUBCHEM_CACTVS_ROTATABLE_BOND>
5

> <PUBCHEM_CACTVS_SUBSKEYS>
AAADceB7IAAAAAAAAAAAAAAAAAAAAAAAAAAwYAAABgAAAAABQAAAHgAQAAAADCjBmAQwwILAAACIAiVSUACCAAAhAgAIiICIZIgIYCLAkbGUIAhglADIyAcQgMAOgAAAAAACAAAAAAAAAAQAAAAAAAAAAA==

> <PUBCHEM_IUPAC_OPENEYE_NAME>
cycloheptyl-[2-oxo-2-(2-phenylanilino)ethyl]ammonium

> <PUBCHEM_IUPAC_CAS_NAME>
cycloheptyl-[2-oxo-2-(2-phenylanilino)ethyl]ammonium

> <PUBCHEM_IUPAC_NAME>
cycloheptyl-[2-oxo-2-(2-phenylanilino)ethyl]azanium

> <PUBCHEM_IUPAC_SYSTEMATIC_NAME>
cycloheptyl-[2-oxidanylidene-2-[(2-phenylphenyl)amino]ethyl]azanium

> <PUBCHEM_IUPAC_TRADITIONAL_NAME>
cycloheptyl-[2-keto-2-(2-phenylanilino)ethyl]ammonium

> <PUBCHEM_IUPAC_INCHI>
InChI=1S/C21H26N2O/c24-21(16-22-18-12-6-1-2-7-13-18)23-20-15-9-8-14-19(20)17-10-4-3-5-11-17/h3-5,8-11,14-15,18,22H,1-2,6-7,12-13,16H2,(H,23,24)/p+1

> <PUBCHEM_IUPAC_INCHIKEY>
XUJFMRDROJMBLO-UHFFFAOYSA-O

> <PUBCHEM_XLOGP3>
4

> <PUBCHEM_EXACT_MASS>
323.212338

> <PUBCHEM_MOLECULAR_FORMULA>
C21H27N2O+

> <PUBCHEM_MOLECULAR_WEIGHT>
323.45188

> <PUBCHEM_OPENEYE_CAN_SMILES>
C1CCCC(CC1)[NH2+]CC(=O)NC2=CC=CC=C2C3=CC=CC=C3

> <PUBCHEM_OPENEYE_ISO_SMILES>
C1CCCC(CC1)[NH2+]CC(=O)NC2=CC=CC=C2C3=CC=CC=C3

> <PUBCHEM_CACTVS_TPSA>
45.7

> <PUBCHEM_MONOISOTOPIC_WEIGHT>
323.212338

> <PUBCHEM_TOTAL_CHARGE>
1

> <PUBCHEM_HEAVY_ATOM_COUNT>
24

> <PUBCHEM_ATOM_DEF_STEREO_COUNT>
0

> <PUBCHEM_ATOM_UDEF_STEREO_COUNT>
0

> <PUBCHEM_BOND_DEF_STEREO_COUNT>
0

> <PUBCHEM_BOND_UDEF_STEREO_COUNT>
0

> <PUBCHEM_ISOTOPIC_ATOM_COUNT>
0

> <PUBCHEM_COMPONENT_COUNT>
1

> <PUBCHEM_CACTVS_TAUTO_COUNT>
3

> <PUBCHEM_COORDINATE_TYPE>
1
5
255

> <PUBCHEM_BONDANNOTATIONS>
13  14  8
13  15  8
14  17  8
15  18  8
16  20  8
16  21  8
17  19  8
18  19  8
20  22  8
21  23  8
22  24  8
23  24  8

$$$$
8965674
  -OEChem-11301217062D

 50 51  0     0  0  0  0  0  0999 V2000
    6.1906   -0.5617    0.0000 O   0  0  0  0  0  0  0  0  0  0  0  0
    5.1906    1.1703    0.0000 N   0  3  0  0  0  0  0  0  0  0  0  0
    7.6906    0.3043    0.0000 N   0  0  0  0  0  0  0  0  0  0  0  0
    4.1906    1.1703    0.0000 C   0  0  0  0  0  0  0  0  0  0  0  0
    3.7568    0.2693    0.0000 C   0  0  0  0  0  0  0  0  0  0  0  0
    3.7568    2.0713    0.0000 C   0  0  0  0  0  0  0  0  0  0  0  0
    2.7818    0.0468    0.0000 C   0  0  0  0  0  0  0  0  0  0  0  0
    2.7818    2.2938    0.0000 C   0  0  0  0  0  0  0  0  0  0  0  0
    2.0000    0.6703    0.0000 C   0  0  0  0  0  0  0  0  0  0  0  0
    2.0000    1.6703    0.0000 C   0  0  0  0  0  0  0  0  0  0  0  0
    6.1906    1.1703    0.0000 C   0  0  0  0  0  0  0  0  0  0  0  0
    6.6906    0.3043    0.0000 C   0  0  0  0  0  0  0  0  0  0  0  0
    8.1906   -0.5617    0.0000 C   0  0  0  0  0  0  0  0  0  0  0  0
    7.6906   -1.4278    0.0000 C   0  0  0  0  0  0  0  0  0  0  0  0
    9.1906   -0.5617    0.0000 C   0  0  0  0  0  0  0  0  0  0  0  0
    6.6906   -1.4278    0.0000 C   0  0  0  0  0  0  0  0  0  0  0  0
    8.1906   -2.2938    0.0000 C   0  0  0  0  0  0  0  0  0  0  0  0
    9.6906   -1.4278    0.0000 C   0  0  0  0  0  0  0  0  0  0  0  0
    9.6906    0.3043    0.0000 C   0  0  0  0  0  0  0  0  0  0  0  0
    9.1906   -2.2938    0.0000 C   0  0  0  0  0  0  0  0  0  0  0  0
    6.1906   -2.2938    0.0000 C   0  0  0  0  0  0  0  0  0  0  0  0
    4.5205    0.6453    0.0000 H   0  0  0  0  0  0  0  0  0  0  0  0
    4.3612    2.2092    0.0000 H   0  0  0  0  0  0  0  0  0  0  0  0
    3.7568    2.6913    0.0000 H   0  0  0  0  0  0  0  0  0  0  0  0
    3.7568   -0.3507    0.0000 H   0  0  0  0  0  0  0  0  0  0  0  0
    4.3612    0.1314    0.0000 H   0  0  0  0  0  0  0  0  0  0  0  0
    3.0508    2.8524    0.0000 H   0  0  0  0  0  0  0  0  0  0  0  0
    2.2971    2.6804    0.0000 H   0  0  0  0  0  0  0  0  0  0  0  0
    2.2971   -0.3397    0.0000 H   0  0  0  0  0  0  0  0  0  0  0  0
    3.0508   -0.5118    0.0000 H   0  0  0  0  0  0  0  0  0  0  0  0
    5.1906    0.5503    0.0000 H   0  0  0  0  0  0  0  0  0  0  0  0
    5.1906    1.7903    0.0000 H   0  0  0  0  0  0  0  0  0  0  0  0
    1.3955    0.8083    0.0000 H   0  0  0  0  0  0  0  0  0  0  0  0
    1.7310    2.2289    0.0000 H   0  0  0  0  0  0  0  0  0  0  0  0
    1.3955    1.5323    0.0000 H   0  0  0  0  0  0  0  0  0  0  0  0
    1.7310    0.1117    0.0000 H   0  0  0  0  0  0  0  0  0  0  0  0
    6.7732    1.3824    0.0000 H   0  0  0  0  0  0  0  0  0  0  0  0
    6.0830    1.7809    0.0000 H   0  0  0  0  0  0  0  0  0  0  0  0
    8.0006    0.8412    0.0000 H   0  0  0  0  0  0  0  0  0  0  0  0
    6.7983   -0.8172    0.0000 H   0  0  0  0  0  0  0  0  0  0  0  0
    6.1080   -1.2157    0.0000 H   0  0  0  0  0  0  0  0  0  0  0  0
    7.8806   -2.8307    0.0000 H   0  0  0  0  0  0  0  0  0  0  0  0
   10.3106   -1.4278    0.0000 H   0  0  0  0  0  0  0  0  0  0  0  0
   10.2276   -0.0057    0.0000 H   0  0  0  0  0  0  0  0  0  0  0  0
   10.0006    0.8412    0.0000 H   0  0  0  0  0  0  0  0  0  0  0  0
    9.1537    0.6143    0.0000 H   0  0  0  0  0  0  0  0  0  0  0  0
    9.5006   -2.8307    0.0000 H   0  0  0  0  0  0  0  0  0  0  0  0
    5.6537   -1.9838    0.0000 H   0  0  0  0  0  0  0  0  0  0  0  0
    5.8806   -2.8307    0.0000 H   0  0  0  0  0  0  0  0  0  0  0  0
    6.7276   -2.6038    0.0000 H   0  0  0  0  0  0  0  0  0  0  0  0
  1 12  2  0  0  0  0
  2  4  1  0  0  0  0
  2 11  1  0  0  0  0
  2 31  1  0  0  0  0
  2 32  1  0  0  0  0
  3 12  1  0  0  0  0
  3 13  1  0  0  0  0
  3 39  1  0  0  0  0
  4  5  1  0  0  0  0
  4  6  1  0  0  0  0
  4 22  1  0  0  0  0
  5  7  1  0  0  0  0
  5 25  1  0  0  0  0
  5 26  1  0  0  0  0
  6  8  1  0  0  0  0
  6 23  1  0  0  0  0
  6 24  1  0  0  0  0
  7  9  1  0  0  0  0
  7 29  1  0  0  0  0
  7 30  1  0  0  0  0
  8 10  1  0  0  0  0
  8 27  1  0  0  0  0
  8 28  1  0  0  0  0
  9 10  1  0  0  0  0
  9 33  1  0  0  0  0
  9 36  1  0  0  0  0
 10 34  1  0  0  0  0
 10 35  1  0  0  0  0
 11 12  1  0  0  0  0
 11 37  1  0  0  0  0
 11 38  1  0  0  0  0
 13 14  1  0  0  0  0
 13 15  2  0  0  0  0
 14 16  1  0  0  0  0
 14 17  2  0  0  0  0
 15 18  1  0  0  0  0
 15 19  1  0  0  0  0
 16 21  1  0  0  0  0
 16 40  1  0  0  0  0
 16 41  1  0  0  0  0
 17 20  1  0  0  0  0
 17 42  1  0  0  0  0
 18 20  2  0  0  0  0
 18 43  1  0  0  0  0
 19 44  1  0  0  0  0
 19 45  1  0  0  0  0
 19 46  1  0  0  0  0
 20 47  1  0  0  0  0
 21 48  1  0  0  0  0
 21 49  1  0  0  0  0
 21 50  1  0  0  0  0
M  CHG  1   2   1
M  END
> <PUBCHEM_COMPOUND_CID>
8965674

> <PUBCHEM_COMPOUND_CANONICALIZED>
1

> <PUBCHEM_CACTVS_COMPLEXITY>
310

> <PUBCHEM_CACTVS_HBOND_ACCEPTOR>
1

> <PUBCHEM_CACTVS_HBOND_DONOR>
2

> <PUBCHEM_CACTVS_ROTATABLE_BOND>
5

> <PUBCHEM_CACTVS_SUBSKEYS>
AAADceB7IAAAAAAAAAAAAAAAAAAAAAAAAAAwAAAABgAAAAABAAAAHgAQAAAADCjBmAQywILAAACIAiVSUACCAAAhAAAIiICIRIgIYCLAkbGUIAhglADIyAcQgMAOAAACAAACAAAAAAQAAAQAAAAAAAAAAA==

> <PUBCHEM_IUPAC_OPENEYE_NAME>
cycloheptyl-[2-(2-ethyl-6-methyl-anilino)-2-oxo-ethyl]ammonium

> <PUBCHEM_IUPAC_CAS_NAME>
cycloheptyl-[2-(2-ethyl-6-methylanilino)-2-oxoethyl]ammonium

> <PUBCHEM_IUPAC_NAME>
cycloheptyl-[2-(2-ethyl-6-methylanilino)-2-oxoethyl]azanium

> <PUBCHEM_IUPAC_SYSTEMATIC_NAME>
cycloheptyl-[2-[(2-ethyl-6-methyl-phenyl)amino]-2-oxidanylidene-ethyl]azanium

> <PUBCHEM_IUPAC_TRADITIONAL_NAME>
cycloheptyl-[2-(2-ethyl-6-methyl-anilino)-2-keto-ethyl]ammonium

> <PUBCHEM_IUPAC_INCHI>
InChI=1S/C18H28N2O/c1-3-15-10-8-9-14(2)18(15)20-17(21)13-19-16-11-6-4-5-7-12-16/h8-10,16,19H,3-7,11-13H2,1-2H3,(H,20,21)/p+1

> <PUBCHEM_IUPAC_INCHIKEY>
FUKBAXZSAZGYCV-UHFFFAOYSA-O

> <PUBCHEM_XLOGP3>
3.4

> <PUBCHEM_EXACT_MASS>
289.227989

> <PUBCHEM_MOLECULAR_FORMULA>
C18H29N2O+

> <PUBCHEM_MOLECULAR_WEIGHT>
289.43566

> <PUBCHEM_OPENEYE_CAN_SMILES>
CCC1=CC=CC(=C1NC(=O)C[NH2+]C2CCCCCC2)C

> <PUBCHEM_OPENEYE_ISO_SMILES>
CCC1=CC=CC(=C1NC(=O)C[NH2+]C2CCCCCC2)C

> <PUBCHEM_CACTVS_TPSA>
45.7

> <PUBCHEM_MONOISOTOPIC_WEIGHT>
289.227989

> <PUBCHEM_TOTAL_CHARGE>
1

> <PUBCHEM_HEAVY_ATOM_COUNT>
21

> <PUBCHEM_ATOM_DEF_STEREO_COUNT>
0

> <PUBCHEM_ATOM_UDEF_STEREO_COUNT>
0

> <PUBCHEM_BOND_DEF_STEREO_COUNT>
0

> <PUBCHEM_BOND_UDEF_STEREO_COUNT>
0

> <PUBCHEM_ISOTOPIC_ATOM_COUNT>
0

> <PUBCHEM_COMPONENT_COUNT>
1

> <PUBCHEM_CACTVS_TAUTO_COUNT>
3

> <PUBCHEM_COORDINATE_TYPE>
1
5
255

> <PUBCHEM_BONDANNOTATIONS>
13  14  8
13  15  8
14  17  8
15  18  8
17  20  8
18  20  8

$$$$
