64298559
  -OEChem-11301218252D

 19 19  0     0  0  0  0  0  0999 V2000
    3.7320    0.7306    0.0000 N   0  0  0  0  0  0  0  0  0  0  0  0
    4.5411    1.3184    0.0000 N   0  0  0  0  0  0  0  0  0  0  0  0
    3.7320   -0.2694    0.0000 C   0  0  0  0  0  0  0  0  0  0  0  0
    2.8660   -0.7694    0.0000 C   0  0  0  0  0  0  0  0  0  0  0  0
    2.9230    1.3184    0.0000 C   0  0  0  0  0  0  0  0  0  0  0  0
    2.8660   -1.7694    0.0000 C   0  0  0  0  0  0  0  0  0  0  0  0
    3.2320    2.2694    0.0000 C   0  0  0  0  0  0  0  0  0  0  0  0
    4.2320    2.2694    0.0000 C   0  0  0  0  0  0  0  0  0  0  0  0
    2.0000   -2.2694    0.0000 C   0  0  0  0  0  0  0  0  0  0  0  0
    3.9441   -0.8520    0.0000 H   0  0  0  0  0  0  0  0  0  0  0  0
    4.3426   -0.1618    0.0000 H   0  0  0  0  0  0  0  0  0  0  0  0
    2.6540   -0.1868    0.0000 H   0  0  0  0  0  0  0  0  0  0  0  0
    2.2554   -0.8771    0.0000 H   0  0  0  0  0  0  0  0  0  0  0  0
    2.3334    1.1268    0.0000 H   0  0  0  0  0  0  0  0  0  0  0  0
    3.4030   -2.0794    0.0000 H   0  0  0  0  0  0  0  0  0  0  0  0
    2.8676    2.7710    0.0000 H   0  0  0  0  0  0  0  0  0  0  0  0
    4.5965    2.7710    0.0000 H   0  0  0  0  0  0  0  0  0  0  0  0
    1.4631   -1.9594    0.0000 H   0  0  0  0  0  0  0  0  0  0  0  0
    2.0000   -2.8894    0.0000 H   0  0  0  0  0  0  0  0  0  0  0  0
  1  2  1  0  0  0  0
  1  3  1  0  0  0  0
  1  5  1  0  0  0  0
  2  8  2  0  0  0  0
  3  4  1  0  0  0  0
  3 10  1  0  0  0  0
  3 11  1  0  0  0  0
  4  6  1  0  0  0  0
  4 12  1  0  0  0  0
  4 13  1  0  0  0  0
  5  7  2  0  0  0  0
  5 14  1  0  0  0  0
  6  9  2  0  0  0  0
  6 15  1  0  0  0  0
  7  8  1  0  0  0  0
  7 16  1  0  0  0  0
  8 17  1  0  0  0  0
  9 18  1  0  0  0  0
  9 19  1  0  0  0  0
M  END
> <PUBCHEM_COMPOUND_CID>
64298559

> <PUBCHEM_COMPOUND_CANONICALIZED>
1

> <PUBCHEM_CACTVS_COMPLEXITY>
90.9

> <PUBCHEM_CACTVS_HBOND_ACCEPTOR>
1

> <PUBCHEM_CACTVS_HBOND_DONOR>
0

> <PUBCHEM_CACTVS_ROTATABLE_BOND>
3

> <PUBCHEM_CACTVS_SUBSKEYS>
AAADccBjAAAAAAAAAAAAAAAAAAAAAWAAAAAAAAAAAAAAAAABgAAAHAAIAAAACADBEgQ8gJIIAACiADBnRACQBAAxggAYUCA4ZBgAAIBAQUAEhAgACADAAAAAAAAAAAAAAAAAAAAAAAAAAAAAAAAAAAAAAA==

> <PUBCHEM_IUPAC_OPENEYE_NAME>
1-but-3-enylpyrazole

> <PUBCHEM_IUPAC_CAS_NAME>
1-but-3-enylpyrazole

> <PUBCHEM_IUPAC_NAME>
1-but-3-enylpyrazole

> <PUBCHEM_IUPAC_SYSTEMATIC_NAME>
1-but-3-enylpyrazole

> <PUBCHEM_IUPAC_TRADITIONAL_NAME>
1-but-3-enylpyrazole

> <PUBCHEM_IUPAC_INCHI>
InChI=1S/C7H10N2/c1-2-3-6-9-7-4-5-8-9/h2,4-5,7H,1,3,6H2

> <PUBCHEM_IUPAC_INCHIKEY>
ZCJLINLMKRWTQG-UHFFFAOYSA-N

> <PUBCHEM_XLOGP3>
0.6

> <PUBCHEM_EXACT_MASS>
122.084398

> <PUBCHEM_MOLECULAR_FORMULA>
C7H10N2

> <PUBCHEM_MOLECULAR_WEIGHT>
122.1677

> <PUBCHEM_OPENEYE_CAN_SMILES>
C=CCCN1C=CC=N1

> <PUBCHEM_OPENEYE_ISO_SMILES>
C=CCCN1C=CC=N1

> <PUBCHEM_CACTVS_TPSA>
17.8

> <PUBCHEM_MONOISOTOPIC_WEIGHT>
122.084398

> <PUBCHEM_TOTAL_CHARGE>
0

> <PUBCHEM_HEAVY_ATOM_COUNT>
9

> <PUBCHEM_ATOM_DEF_STEREO_COUNT>
0

> <PUBCHEM_ATOM_UDEF_STEREO_COUNT>
0

> <PUBCHEM_BOND_DEF_STEREO_COUNT>
0

> <PUBCHEM_BOND_UDEF_STEREO_COUNT>
0

> <PUBCHEM_ISOTOPIC_ATOM_COUNT>
0

> <PUBCHEM_COMPONENT_COUNT>
1

> <PUBCHEM_CACTVS_TAUTO_COUNT>
1

> <PUBCHEM_COORDINATE_TYPE>
1
5
255

> <PUBCHEM_BONDANNOTATIONS>
1  2  8
1  5  8
2  8  8
5  7  8
7  8  8

$$$$
64298780
  -OEChem-11301218252D

 32 33  0     0  0  0  0  0  0999 V2000
    4.6783   -0.7296    0.0000 N   0  0  0  0  0  0  0  0  0  0  0  0
    4.9889    0.2209    0.0000 C   0  0  0  0  0  0  0  0  0  0  0  0
    3.7320   -1.0344    0.0000 C   0  0  0  0  0  0  0  0  0  0  0  0
    5.2619   -1.5344    0.0000 C   0  0  0  0  0  0  0  0  0  0  0  0
    5.9674    0.4271    0.0000 C   0  0  0  0  0  0  0  0  0  0  0  0
    3.7320   -2.0344    0.0000 C   0  0  0  0  0  0  0  0  0  0  0  0
    4.6783   -2.3391    0.0000 C   0  0  0  0  0  0  0  0  0  0  0  0
    6.2781    1.3776    0.0000 C   0  0  0  0  0  0  0  0  0  0  0  0
    2.8660   -0.5344    0.0000 C   0  0  0  0  0  0  0  0  0  0  0  0
    6.2619   -1.5344    0.0000 C   0  0  0  0  0  0  0  0  0  0  0  0
    2.8660   -2.5344    0.0000 C   0  0  0  0  0  0  0  0  0  0  0  0
    2.0000   -1.0344    0.0000 C   0  0  0  0  0  0  0  0  0  0  0  0
    2.0000   -2.0344    0.0000 C   0  0  0  0  0  0  0  0  0  0  0  0
    7.2566    1.5838    0.0000 C   0  0  0  0  0  0  0  0  0  0  0  0
    7.5673    2.5344    0.0000 C   0  0  0  0  0  0  0  0  0  0  0  0
    4.9684    0.8405    0.0000 H   0  0  0  0  0  0  0  0  0  0  0  0
    4.3751    0.3082    0.0000 H   0  0  0  0  0  0  0  0  0  0  0  0
    5.9880   -0.1926    0.0000 H   0  0  0  0  0  0  0  0  0  0  0  0
    6.5812    0.3398    0.0000 H   0  0  0  0  0  0  0  0  0  0  0  0
    4.8709   -2.9284    0.0000 H   0  0  0  0  0  0  0  0  0  0  0  0
    6.2575    1.9973    0.0000 H   0  0  0  0  0  0  0  0  0  0  0  0
    5.6643    1.4650    0.0000 H   0  0  0  0  0  0  0  0  0  0  0  0
    2.8660    0.0856    0.0000 H   0  0  0  0  0  0  0  0  0  0  0  0
    6.2619   -2.1544    0.0000 H   0  0  0  0  0  0  0  0  0  0  0  0
    6.8819   -1.5344    0.0000 H   0  0  0  0  0  0  0  0  0  0  0  0
    6.2619   -0.9144    0.0000 H   0  0  0  0  0  0  0  0  0  0  0  0
    2.8660   -3.1544    0.0000 H   0  0  0  0  0  0  0  0  0  0  0  0
    1.4631   -0.7244    0.0000 H   0  0  0  0  0  0  0  0  0  0  0  0
    1.4631   -2.3444    0.0000 H   0  0  0  0  0  0  0  0  0  0  0  0
    7.6707    1.1224    0.0000 H   0  0  0  0  0  0  0  0  0  0  0  0
    8.1739    2.6622    0.0000 H   0  0  0  0  0  0  0  0  0  0  0  0
    7.1532    2.9958    0.0000 H   0  0  0  0  0  0  0  0  0  0  0  0
  1  2  1  0  0  0  0
  1  3  1  0  0  0  0
  1  4  1  0  0  0  0
  2  5  1  0  0  0  0
  2 16  1  0  0  0  0
  2 17  1  0  0  0  0
  3  6  1  0  0  0  0
  3  9  2  0  0  0  0
  4  7  2  0  0  0  0
  4 10  1  0  0  0  0
  5  8  1  0  0  0  0
  5 18  1  0  0  0  0
  5 19  1  0  0  0  0
  6  7  1  0  0  0  0
  6 11  2  0  0  0  0
  7 20  1  0  0  0  0
  8 14  1  0  0  0  0
  8 21  1  0  0  0  0
  8 22  1  0  0  0  0
  9 12  1  0  0  0  0
  9 23  1  0  0  0  0
 10 24  1  0  0  0  0
 10 25  1  0  0  0  0
 10 26  1  0  0  0  0
 11 13  1  0  0  0  0
 11 27  1  0  0  0  0
 12 13  2  0  0  0  0
 12 28  1  0  0  0  0
 13 29  1  0  0  0  0
 14 15  2  0  0  0  0
 14 30  1  0  0  0  0
 15 31  1  0  0  0  0
 15 32  1  0  0  0  0
M  END
> <PUBCHEM_COMPOUND_CID>
64298780

> <PUBCHEM_COMPOUND_CANONICALIZED>
1

> <PUBCHEM_CACTVS_COMPLEXITY>
211

> <PUBCHEM_CACTVS_HBOND_ACCEPTOR>
0

> <PUBCHEM_CACTVS_HBOND_DONOR>
0

> <PUBCHEM_CACTVS_ROTATABLE_BOND>
4

> <PUBCHEM_CACTVS_SUBSKEYS>
AAADceByAAAAAAAAAAAAAAAAAAAAAWAAAAAwAAAAAAAAAFgB8AAAHAAAAAAADAjBHgQywPMMEACgAyRiRACCgCAhAiAI2CA4ZJgIIOLAkZGEIAhggADIyAcQgIAOAAAAAAACAAAAAAAAAAQAAAAAAAAAAA==

> <PUBCHEM_IUPAC_OPENEYE_NAME>
2-methyl-1-pent-4-enyl-indole

> <PUBCHEM_IUPAC_CAS_NAME>
2-methyl-1-pent-4-enylindole

> <PUBCHEM_IUPAC_NAME>
2-methyl-1-pent-4-enylindole

> <PUBCHEM_IUPAC_SYSTEMATIC_NAME>
2-methyl-1-pent-4-enyl-indole

> <PUBCHEM_IUPAC_TRADITIONAL_NAME>
2-methyl-1-pent-4-enyl-indole

> <PUBCHEM_IUPAC_INCHI>
InChI=1S/C14H17N/c1-3-4-7-10-15-12(2)11-13-8-5-6-9-14(13)15/h3,5-6,8-9,11H,1,4,7,10H2,2H3

> <PUBCHEM_IUPAC_INCHIKEY>
DYDOOTHGJVWAGE-UHFFFAOYSA-N

> <PUBCHEM_XLOGP3>
4.2

> <PUBCHEM_EXACT_MASS>
199.1361

> <PUBCHEM_MOLECULAR_FORMULA>
C14H17N

> <PUBCHEM_MOLECULAR_WEIGHT>
199.29148

> <PUBCHEM_OPENEYE_CAN_SMILES>
CC1=CC2=CC=CC=C2N1CCCC=C

> <PUBCHEM_OPENEYE_ISO_SMILES>
CC1=CC2=CC=CC=C2N1CCCC=C

> <PUBCHEM_CACTVS_TPSA>
4.9

> <PUBCHEM_MONOISOTOPIC_WEIGHT>
199.1361

> <PUBCHEM_TOTAL_CHARGE>
0

> <PUBCHEM_HEAVY_ATOM_COUNT>
15

> <PUBCHEM_ATOM_DEF_STEREO_COUNT>
0

> <PUBCHEM_ATOM_UDEF_STEREO_COUNT>
0

> <PUBCHEM_BOND_DEF_STEREO_COUNT>
0

> <PUBCHEM_BOND_UDEF_STEREO_COUNT>
0

> <PUBCHEM_ISOTOPIC_ATOM_COUNT>
0

> <PUBCHEM_COMPONENT_COUNT>
1

> <PUBCHEM_CACTVS_TAUTO_COUNT>
1

> <PUBCHEM_COORDINATE_TYPE>
1
5
255

> <PUBCHEM_BONDANNOTATIONS>
1  3  8
1  4  8
11  13  8
12  13  8
3  6  8
3  9  8
4  7  8
6  11  8
6  7  8
9  12  8

$$$$
64298781
  -OEChem-11301218252D

 29 30  0     0  0  0  0  0  0999 V2000
    4.6783   -0.2544    0.0000 N   0  0  0  0  0  0  0  0  0  0  0  0
    3.7320   -0.5591    0.0000 C   0  0  0  0  0  0  0  0  0  0  0  0
    4.9889    0.6961    0.0000 C   0  0  0  0  0  0  0  0  0  0  0  0
    5.2619   -1.0591    0.0000 C   0  0  0  0  0  0  0  0  0  0  0  0
    3.7320   -1.5591    0.0000 C   0  0  0  0  0  0  0  0  0  0  0  0
    4.6783   -1.8638    0.0000 C   0  0  0  0  0  0  0  0  0  0  0  0
    5.9674    0.9024    0.0000 C   0  0  0  0  0  0  0  0  0  0  0  0
    2.8660   -0.0591    0.0000 C   0  0  0  0  0  0  0  0  0  0  0  0
    6.2619   -1.0591    0.0000 C   0  0  0  0  0  0  0  0  0  0  0  0
    2.8660   -2.0591    0.0000 C   0  0  0  0  0  0  0  0  0  0  0  0
    2.0000   -0.5591    0.0000 C   0  0  0  0  0  0  0  0  0  0  0  0
    2.0000   -1.5591    0.0000 C   0  0  0  0  0  0  0  0  0  0  0  0
    6.2781    1.8529    0.0000 C   0  0  0  0  0  0  0  0  0  0  0  0
    7.2566    2.0591    0.0000 C   0  0  0  0  0  0  0  0  0  0  0  0
    4.9684    1.3158    0.0000 H   0  0  0  0  0  0  0  0  0  0  0  0
    4.3751    0.7835    0.0000 H   0  0  0  0  0  0  0  0  0  0  0  0
    4.8709   -2.4532    0.0000 H   0  0  0  0  0  0  0  0  0  0  0  0
    5.9880    0.2827    0.0000 H   0  0  0  0  0  0  0  0  0  0  0  0
    6.5812    0.8150    0.0000 H   0  0  0  0  0  0  0  0  0  0  0  0
    2.8660    0.5609    0.0000 H   0  0  0  0  0  0  0  0  0  0  0  0
    6.2619   -1.6791    0.0000 H   0  0  0  0  0  0  0  0  0  0  0  0
    6.8819   -1.0591    0.0000 H   0  0  0  0  0  0  0  0  0  0  0  0
    6.2619   -0.4391    0.0000 H   0  0  0  0  0  0  0  0  0  0  0  0
    2.8660   -2.6791    0.0000 H   0  0  0  0  0  0  0  0  0  0  0  0
    1.4631   -0.2491    0.0000 H   0  0  0  0  0  0  0  0  0  0  0  0
    1.4631   -1.8691    0.0000 H   0  0  0  0  0  0  0  0  0  0  0  0
    5.8640    2.3144    0.0000 H   0  0  0  0  0  0  0  0  0  0  0  0
    7.6707    1.5976    0.0000 H   0  0  0  0  0  0  0  0  0  0  0  0
    7.4492    2.6484    0.0000 H   0  0  0  0  0  0  0  0  0  0  0  0
  1  2  1  0  0  0  0
  1  3  1  0  0  0  0
  1  4  1  0  0  0  0
  2  5  1  0  0  0  0
  2  8  2  0  0  0  0
  3  7  1  0  0  0  0
  3 15  1  0  0  0  0
  3 16  1  0  0  0  0
  4  6  2  0  0  0  0
  4  9  1  0  0  0  0
  5  6  1  0  0  0  0
  5 10  2  0  0  0  0
  6 17  1  0  0  0  0
  7 13  1  0  0  0  0
  7 18  1  0  0  0  0
  7 19  1  0  0  0  0
  8 11  1  0  0  0  0
  8 20  1  0  0  0  0
  9 21  1  0  0  0  0
  9 22  1  0  0  0  0
  9 23  1  0  0  0  0
 10 12  1  0  0  0  0
 10 24  1  0  0  0  0
 11 12  2  0  0  0  0
 11 25  1  0  0  0  0
 12 26  1  0  0  0  0
 13 14  2  0  0  0  0
 13 27  1  0  0  0  0
 14 28  1  0  0  0  0
 14 29  1  0  0  0  0
M  END
> <PUBCHEM_COMPOUND_CID>
64298781

> <PUBCHEM_COMPOUND_CANONICALIZED>
1

> <PUBCHEM_CACTVS_COMPLEXITY>
199

> <PUBCHEM_CACTVS_HBOND_ACCEPTOR>
0

> <PUBCHEM_CACTVS_HBOND_DONOR>
0

> <PUBCHEM_CACTVS_ROTATABLE_BOND>
3

> <PUBCHEM_CACTVS_SUBSKEYS>
AAADccByAAAAAAAAAAAAAAAAAAAAAWAAAAAwAAAAAAAAAFgB8AAAHAAAAAAADAjBHgQywPMMEACgAyRiRACCgCAhAiAI2CA4ZJgIIOLAkZGEIAhggADIyAcQgIAOAAAAAAACAAAAAAAAAAQAAAAAAAAAAA==

> <PUBCHEM_IUPAC_OPENEYE_NAME>
1-but-3-enyl-2-methyl-indole

> <PUBCHEM_IUPAC_CAS_NAME>
1-but-3-enyl-2-methylindole

> <PUBCHEM_IUPAC_NAME>
1-but-3-enyl-2-methylindole

> <PUBCHEM_IUPAC_SYSTEMATIC_NAME>
1-but-3-enyl-2-methyl-indole

> <PUBCHEM_IUPAC_TRADITIONAL_NAME>
1-but-3-enyl-2-methyl-indole

> <PUBCHEM_IUPAC_INCHI>
InChI=1S/C13H15N/c1-3-4-9-14-11(2)10-12-7-5-6-8-13(12)14/h3,5-8,10H,1,4,9H2,2H3

> <PUBCHEM_IUPAC_INCHIKEY>
RWZWBZPVLLAXFA-UHFFFAOYSA-N

> <PUBCHEM_XLOGP3>
3.9

> <PUBCHEM_EXACT_MASS>
185.120449

> <PUBCHEM_MOLECULAR_FORMULA>
C13H15N

> <PUBCHEM_MOLECULAR_WEIGHT>
185.2649

> <PUBCHEM_OPENEYE_CAN_SMILES>
CC1=CC2=CC=CC=C2N1CCC=C

> <PUBCHEM_OPENEYE_ISO_SMILES>
CC1=CC2=CC=CC=C2N1CCC=C

> <PUBCHEM_CACTVS_TPSA>
4.9

> <PUBCHEM_MONOISOTOPIC_WEIGHT>
185.120449

> <PUBCHEM_TOTAL_CHARGE>
0

> <PUBCHEM_HEAVY_ATOM_COUNT>
14

> <PUBCHEM_ATOM_DEF_STEREO_COUNT>
0

> <PUBCHEM_ATOM_UDEF_STEREO_COUNT>
0

> <PUBCHEM_BOND_DEF_STEREO_COUNT>
0

> <PUBCHEM_BOND_UDEF_STEREO_COUNT>
0

> <PUBCHEM_ISOTOPIC_ATOM_COUNT>
0

> <PUBCHEM_COMPONENT_COUNT>
1

> <PUBCHEM_CACTVS_TAUTO_COUNT>
1

> <PUBCHEM_COORDINATE_TYPE>
1
5
255

> <PUBCHEM_BONDANNOTATIONS>
1  2  8
1  4  8
10  12  8
11  12  8
2  5  8
2  8  8
4  6  8
5  10  8
5  6  8
8  11  8

$$$$
