5445821
  -OEChem-02051306582D

 55 57  0     0  0  0  0  0  0999 V2000
   10.6603   -1.9400    0.0000 S   0  0  0  0  0  0  0  0  0  0  0  0
   10.1603   -2.8060    0.0000 O   0  0  0  0  0  0  0  0  0  0  0  0
   11.1603   -1.0740    0.0000 O   0  0  0  0  0  0  0  0  0  0  0  0
   13.2583    0.5600    0.0000 O   0  0  0  0  0  0  0  0  0  0  0  0
    2.8660    2.5600    0.0000 O   0  0  0  0  0  0  0  0  0  0  0  0
   14.9904   -2.4400    0.0000 O   0  0  0  0  0  0  0  0  0  0  0  0
    4.5981   -1.4400    0.0000 O   0  0  0  0  0  0  0  0  0  0  0  0
   11.5263   -2.4400    0.0000 N   0  0  0  0  0  0  0  0  0  0  0  0
    7.1962    0.0600    0.0000 N   0  0  0  0  0  0  0  0  0  0  0  0
   13.2583   -2.4400    0.0000 N   0  0  0  0  0  0  0  0  0  0  0  0
   14.1244   -0.9400    0.0000 N   0  0  0  0  0  0  0  0  0  0  0  0
    9.7942   -1.4400    0.0000 C   0  0  0  0  0  0  0  0  0  0  0  0
    9.7942   -0.4400    0.0000 C   0  0  0  0  0  0  0  0  0  0  0  0
    8.9282   -1.9400    0.0000 C   0  0  0  0  0  0  0  0  0  0  0  0
    8.0622   -0.4400    0.0000 C   0  0  0  0  0  0  0  0  0  0  0  0
    8.9282    0.0600    0.0000 C   0  0  0  0  0  0  0  0  0  0  0  0
    8.0622   -1.4400    0.0000 C   0  0  0  0  0  0  0  0  0  0  0  0
   12.3923   -1.9400    0.0000 C   0  0  0  0  0  0  0  0  0  0  0  0
   12.3923   -0.9400    0.0000 C   0  0  0  0  0  0  0  0  0  0  0  0
    6.3301   -0.4400    0.0000 C   0  0  0  0  0  0  0  0  0  0  0  0
    3.7320    0.0600    0.0000 C   0  0  0  0  0  0  0  0  0  0  0  0
    5.4641    0.0600    0.0000 C   0  0  0  0  0  0  0  0  0  0  0  0
    4.5981   -0.4400    0.0000 C   0  0  0  0  0  0  0  0  0  0  0  0
   13.2583   -0.4400    0.0000 C   0  0  0  0  0  0  0  0  0  0  0  0
    3.7320    1.0600    0.0000 C   0  0  0  0  0  0  0  0  0  0  0  0
    2.8660   -0.4400    0.0000 C   0  0  0  0  0  0  0  0  0  0  0  0
    2.8660    1.5600    0.0000 C   0  0  0  0  0  0  0  0  0  0  0  0
   14.1244   -1.9400    0.0000 C   0  0  0  0  0  0  0  0  0  0  0  0
    2.0000    0.0600    0.0000 C   0  0  0  0  0  0  0  0  0  0  0  0
    2.0000    1.0600    0.0000 C   0  0  0  0  0  0  0  0  0  0  0  0
   14.1244    1.0600    0.0000 C   0  0  0  0  0  0  0  0  0  0  0  0
    2.0000    3.0600    0.0000 C   0  0  0  0  0  0  0  0  0  0  0  0
   15.8564   -1.9400    0.0000 C   0  0  0  0  0  0  0  0  0  0  0  0
   10.3312   -0.1300    0.0000 H   0  0  0  0  0  0  0  0  0  0  0  0
    8.9282   -2.5600    0.0000 H   0  0  0  0  0  0  0  0  0  0  0  0
    8.9282    0.6800    0.0000 H   0  0  0  0  0  0  0  0  0  0  0  0
    7.5252   -1.7500    0.0000 H   0  0  0  0  0  0  0  0  0  0  0  0
   11.5263   -3.0600    0.0000 H   0  0  0  0  0  0  0  0  0  0  0  0
    7.1962    0.6800    0.0000 H   0  0  0  0  0  0  0  0  0  0  0  0
   11.8554   -0.6300    0.0000 H   0  0  0  0  0  0  0  0  0  0  0  0
    6.3301   -1.0600    0.0000 H   0  0  0  0  0  0  0  0  0  0  0  0
    5.4641    0.6800    0.0000 H   0  0  0  0  0  0  0  0  0  0  0  0
    4.2690    1.3700    0.0000 H   0  0  0  0  0  0  0  0  0  0  0  0
    2.8660   -1.0600    0.0000 H   0  0  0  0  0  0  0  0  0  0  0  0
    1.4631   -0.2500    0.0000 H   0  0  0  0  0  0  0  0  0  0  0  0
    1.4631    1.3700    0.0000 H   0  0  0  0  0  0  0  0  0  0  0  0
   14.4344    0.5231    0.0000 H   0  0  0  0  0  0  0  0  0  0  0  0
   14.6613    1.3700    0.0000 H   0  0  0  0  0  0  0  0  0  0  0  0
   13.8144    1.5969    0.0000 H   0  0  0  0  0  0  0  0  0  0  0  0
    2.3100    3.5969    0.0000 H   0  0  0  0  0  0  0  0  0  0  0  0
    1.4631    3.3700    0.0000 H   0  0  0  0  0  0  0  0  0  0  0  0
    1.6900    2.5231    0.0000 H   0  0  0  0  0  0  0  0  0  0  0  0
   16.1664   -2.4769    0.0000 H   0  0  0  0  0  0  0  0  0  0  0  0
   16.3933   -1.6300    0.0000 H   0  0  0  0  0  0  0  0  0  0  0  0
   15.5464   -1.4031    0.0000 H   0  0  0  0  0  0  0  0  0  0  0  0
  1  2  2  0  0  0  0
  1  3  2  0  0  0  0
  1  8  1  0  0  0  0
  1 12  1  0  0  0  0
  4 24  1  0  0  0  0
  4 31  1  0  0  0  0
  5 27  1  0  0  0  0
  5 32  1  0  0  0  0
  6 28  1  0  0  0  0
  6 33  1  0  0  0  0
  7 23  2  0  0  0  0
  8 18  1  0  0  0  0
  8 38  1  0  0  0  0
  9 15  1  0  0  0  0
  9 20  1  0  0  0  0
  9 39  1  0  0  0  0
 10 18  1  0  0  0  0
 10 28  2  0  0  0  0
 11 24  2  0  0  0  0
 11 28  1  0  0  0  0
 12 13  2  0  0  0  0
 12 14  1  0  0  0  0
 13 16  1  0  0  0  0
 13 34  1  0  0  0  0
 14 17  2  0  0  0  0
 14 35  1  0  0  0  0
 15 16  2  0  0  0  0
 15 17  1  0  0  0  0
 16 36  1  0  0  0  0
 17 37  1  0  0  0  0
 18 19  2  0  0  0  0
 19 24  1  0  0  0  0
 19 40  1  0  0  0  0
 20 22  2  0  0  0  0
 20 41  1  0  0  0  0
 21 23  1  0  0  0  0
 21 25  2  0  0  0  0
 21 26  1  0  0  0  0
 22 23  1  0  0  0  0
 22 42  1  0  0  0  0
 25 27  1  0  0  0  0
 25 43  1  0  0  0  0
 26 29  2  0  0  0  0
 26 44  1  0  0  0  0
 27 30  2  0  0  0  0
 29 30  1  0  0  0  0
 29 45  1  0  0  0  0
 30 46  1  0  0  0  0
 31 47  1  0  0  0  0
 31 48  1  0  0  0  0
 31 49  1  0  0  0  0
 32 50  1  0  0  0  0
 32 51  1  0  0  0  0
 32 52  1  0  0  0  0
 33 53  1  0  0  0  0
 33 54  1  0  0  0  0
 33 55  1  0  0  0  0
M  END
> <PUBCHEM_COMPOUND_CID>
5445821

> <PUBCHEM_COMPOUND_CANONICALIZED>
1

> <PUBCHEM_CACTVS_COMPLEXITY>
751

> <PUBCHEM_CACTVS_HBOND_ACCEPTOR>
10

> <PUBCHEM_CACTVS_HBOND_DONOR>
2

> <PUBCHEM_CACTVS_ROTATABLE_BOND>
10

> <PUBCHEM_CACTVS_SUBSKEYS>
AAADceB7uABAAAAAAAAAAAAAAAAAAAAAAAA8YIAAAAAAAAAB0AAAHgQQQAAADAzB2gYz95bIFAKoAqZ2ZHDCiDklIqAJmLk+bNiMLjLE/duENShu0BtI6eeayLCOAAQBAAAAAAAACAIAAAAAAAAAAAAAAA==

> <PUBCHEM_IUPAC_OPENEYE_NAME>
N-(2,6-dimethoxypyrimidin-4-yl)-4-[[(E)-3-(3-methoxyphenyl)-3-oxo-prop-1-enyl]amino]benzenesulfonamide

> <PUBCHEM_IUPAC_CAS_NAME>
N-(2,6-dimethoxy-4-pyrimidinyl)-4-[[(E)-3-(3-methoxyphenyl)-3-oxoprop-1-enyl]amino]benzenesulfonamide

> <PUBCHEM_IUPAC_NAME>
N-(2,6-dimethoxypyrimidin-4-yl)-4-[[(E)-3-(3-methoxyphenyl)-3-oxoprop-1-enyl]amino]benzenesulfonamide

> <PUBCHEM_IUPAC_SYSTEMATIC_NAME>
N-(2,6-dimethoxypyrimidin-4-yl)-4-[[(E)-3-(3-methoxyphenyl)-3-oxidanylidene-prop-1-enyl]amino]benzenesulfonamide

> <PUBCHEM_IUPAC_TRADITIONAL_NAME>
N-(2,6-dimethoxypyrimidin-4-yl)-4-[[(E)-3-keto-3-(3-methoxyphenyl)prop-1-enyl]amino]benzenesulfonamide

> <PUBCHEM_IUPAC_INCHI>
InChI=1S/C22H22N4O6S/c1-30-17-6-4-5-15(13-17)19(27)11-12-23-16-7-9-18(10-8-16)33(28,29)26-20-14-21(31-2)25-22(24-20)32-3/h4-14,23H,1-3H3,(H,24,25,26)/b12-11+

> <PUBCHEM_IUPAC_INCHIKEY>
WEYGJZOCMZNEDI-VAWYXSNFSA-N

> <PUBCHEM_XLOGP3>
4.3

> <PUBCHEM_EXACT_MASS>
470.126005

> <PUBCHEM_MOLECULAR_FORMULA>
C22H22N4O6S

> <PUBCHEM_MOLECULAR_WEIGHT>
470.49828

> <PUBCHEM_OPENEYE_CAN_SMILES>
COC1=CC=CC(=C1)C(=O)C=CNC2=CC=C(C=C2)S(=O)(=O)NC3=CC(=NC(=N3)OC)OC

> <PUBCHEM_OPENEYE_ISO_SMILES>
COC1=CC=CC(=C1)C(=O)/C=C/NC2=CC=C(C=C2)S(=O)(=O)NC3=CC(=NC(=N3)OC)OC

> <PUBCHEM_CACTVS_TPSA>
137

> <PUBCHEM_MONOISOTOPIC_WEIGHT>
470.126005

> <PUBCHEM_TOTAL_CHARGE>
0

> <PUBCHEM_HEAVY_ATOM_COUNT>
33

> <PUBCHEM_ATOM_DEF_STEREO_COUNT>
0

> <PUBCHEM_ATOM_UDEF_STEREO_COUNT>
0

> <PUBCHEM_BOND_DEF_STEREO_COUNT>
1

> <PUBCHEM_BOND_UDEF_STEREO_COUNT>
0

> <PUBCHEM_ISOTOPIC_ATOM_COUNT>
0

> <PUBCHEM_COMPONENT_COUNT>
1

> <PUBCHEM_CACTVS_TAUTO_COUNT>
9

> <PUBCHEM_COORDINATE_TYPE>
1
5
255

> <PUBCHEM_BONDANNOTATIONS>
10  18  8
10  28  8
11  24  8
11  28  8
12  13  8
12  14  8
13  16  8
14  17  8
15  16  8
15  17  8
18  19  8
19  24  8
21  25  8
21  26  8
25  27  8
26  29  8
27  30  8
29  30  8

$$$$
