34252823
  -OEChem-02051307122D

 44 45  0     0  0  0  0  0  0999 V2000
    2.0000    0.5000    0.0000 F   0  0  0  0  0  0  0  0  0  0  0  0
    3.3660    0.1340    0.0000 F   0  0  0  0  0  0  0  0  0  0  0  0
    2.3660    1.8660    0.0000 F   0  0  0  0  0  0  0  0  0  0  0  0
    4.5981    5.0000    0.0000 F   0  0  0  0  0  0  0  0  0  0  0  0
    5.5981    4.0000    0.0000 F   0  0  0  0  0  0  0  0  0  0  0  0
    3.5981    4.0000    0.0000 F   0  0  0  0  0  0  0  0  0  0  0  0
    8.9282   -4.5000    0.0000 O   0  0  0  0  0  0  0  0  0  0  0  0
   10.6603   -3.5000    0.0000 O   0  0  0  0  0  0  0  0  0  0  0  0
    7.1962    1.5000    0.0000 O   0  0  0  0  0  0  0  0  0  0  0  0
    6.3301   -2.0000    0.0000 O   0  0  0  0  0  0  0  0  0  0  0  0
    6.3301    0.0000    0.0000 N   0  0  0  0  0  0  0  0  0  0  0  0
    7.1962   -0.5000    0.0000 N   0  0  0  0  0  0  0  0  0  0  0  0
    5.4641    1.5000    0.0000 C   0  0  0  0  0  0  0  0  0  0  0  0
    3.7320    1.5000    0.0000 C   0  0  0  0  0  0  0  0  0  0  0  0
    4.5981    3.0000    0.0000 C   0  0  0  0  0  0  0  0  0  0  0  0
    5.4641    2.5000    0.0000 C   0  0  0  0  0  0  0  0  0  0  0  0
    4.5981    1.0000    0.0000 C   0  0  0  0  0  0  0  0  0  0  0  0
    3.7320    2.5000    0.0000 C   0  0  0  0  0  0  0  0  0  0  0  0
    6.3301    1.0000    0.0000 C   0  0  0  0  0  0  0  0  0  0  0  0
    2.8660    1.0000    0.0000 C   0  0  0  0  0  0  0  0  0  0  0  0
    4.5981    4.0000    0.0000 C   0  0  0  0  0  0  0  0  0  0  0  0
    8.0622   -2.0000    0.0000 C   0  0  0  0  0  0  0  0  0  0  0  0
    8.0622   -3.0000    0.0000 C   0  0  0  0  0  0  0  0  0  0  0  0
    8.9282   -3.5000    0.0000 C   0  0  0  0  0  0  0  0  0  0  0  0
    7.1962   -1.5000    0.0000 C   0  0  0  0  0  0  0  0  0  0  0  0
    9.7942   -3.0000    0.0000 C   0  0  0  0  0  0  0  0  0  0  0  0
    8.9282   -1.5000    0.0000 C   0  0  0  0  0  0  0  0  0  0  0  0
    9.7942   -2.0000    0.0000 C   0  0  0  0  0  0  0  0  0  0  0  0
    8.0622   -5.0000    0.0000 C   0  0  0  0  0  0  0  0  0  0  0  0
   11.5263   -3.0000    0.0000 C   0  0  0  0  0  0  0  0  0  0  0  0
    6.0010    2.8100    0.0000 H   0  0  0  0  0  0  0  0  0  0  0  0
    4.5981    0.3800    0.0000 H   0  0  0  0  0  0  0  0  0  0  0  0
    3.1951    2.8100    0.0000 H   0  0  0  0  0  0  0  0  0  0  0  0
    7.5252   -3.3100    0.0000 H   0  0  0  0  0  0  0  0  0  0  0  0
    5.7932   -0.3100    0.0000 H   0  0  0  0  0  0  0  0  0  0  0  0
    8.9282   -0.8800    0.0000 H   0  0  0  0  0  0  0  0  0  0  0  0
    7.7331   -0.1900    0.0000 H   0  0  0  0  0  0  0  0  0  0  0  0
   10.3312   -1.6900    0.0000 H   0  0  0  0  0  0  0  0  0  0  0  0
    7.7522   -4.4631    0.0000 H   0  0  0  0  0  0  0  0  0  0  0  0
    7.5252   -5.3100    0.0000 H   0  0  0  0  0  0  0  0  0  0  0  0
    8.3722   -5.5369    0.0000 H   0  0  0  0  0  0  0  0  0  0  0  0
   11.8363   -3.5369    0.0000 H   0  0  0  0  0  0  0  0  0  0  0  0
   12.0632   -2.6900    0.0000 H   0  0  0  0  0  0  0  0  0  0  0  0
   11.2163   -2.4631    0.0000 H   0  0  0  0  0  0  0  0  0  0  0  0
  1 20  1  0  0  0  0
  2 20  1  0  0  0  0
  3 20  1  0  0  0  0
  4 21  1  0  0  0  0
  5 21  1  0  0  0  0
  6 21  1  0  0  0  0
  7 24  1  0  0  0  0
  7 29  1  0  0  0  0
  8 26  1  0  0  0  0
  8 30  1  0  0  0  0
  9 19  2  0  0  0  0
 10 25  2  0  0  0  0
 11 12  1  0  0  0  0
 11 19  1  0  0  0  0
 11 35  1  0  0  0  0
 12 25  1  0  0  0  0
 12 37  1  0  0  0  0
 13 16  2  0  0  0  0
 13 17  1  0  0  0  0
 13 19  1  0  0  0  0
 14 17  2  0  0  0  0
 14 18  1  0  0  0  0
 14 20  1  0  0  0  0
 15 16  1  0  0  0  0
 15 18  2  0  0  0  0
 15 21  1  0  0  0  0
 16 31  1  0  0  0  0
 17 32  1  0  0  0  0
 18 33  1  0  0  0  0
 22 23  2  0  0  0  0
 22 25  1  0  0  0  0
 22 27  1  0  0  0  0
 23 24  1  0  0  0  0
 23 34  1  0  0  0  0
 24 26  2  0  0  0  0
 26 28  1  0  0  0  0
 27 28  2  0  0  0  0
 27 36  1  0  0  0  0
 28 38  1  0  0  0  0
 29 39  1  0  0  0  0
 29 40  1  0  0  0  0
 29 41  1  0  0  0  0
 30 42  1  0  0  0  0
 30 43  1  0  0  0  0
 30 44  1  0  0  0  0
M  END
> <PUBCHEM_COMPOUND_CID>
34252823

> <PUBCHEM_COMPOUND_CANONICALIZED>
1

> <PUBCHEM_CACTVS_COMPLEXITY>
591

> <PUBCHEM_CACTVS_HBOND_ACCEPTOR>
10

> <PUBCHEM_CACTVS_HBOND_DONOR>
2

> <PUBCHEM_CACTVS_ROTATABLE_BOND>
4

> <PUBCHEM_CACTVS_SUBSKEYS>
AAADccB7OcAAAAAAAAAAAAAAAAAAAAAAAAAwYAAAAAAAAAABQAAAHwAYAAAADASBmBIyBoBiBACIAiFSEACCCAAkIAIaqAEGjMgNJjKEtRuAMSJkwBEKqYe63FDOIAADAAAAQABAAAYAAACAAAAAAAAAAA==

> <PUBCHEM_IUPAC_OPENEYE_NAME>
N'-[3,5-bis(trifluoromethyl)benzoyl]-3,4-dimethoxy-benzohydrazide

> <PUBCHEM_IUPAC_CAS_NAME>
N'-[[3,5-bis(trifluoromethyl)phenyl]-oxomethyl]-3,4-dimethoxybenzohydrazide

> <PUBCHEM_IUPAC_NAME>
N'-[3,5-bis(trifluoromethyl)benzoyl]-3,4-dimethoxybenzohydrazide

> <PUBCHEM_IUPAC_SYSTEMATIC_NAME>
N'-[3,5-bis(trifluoromethyl)phenyl]carbonyl-3,4-dimethoxy-benzohydrazide

> <PUBCHEM_IUPAC_TRADITIONAL_NAME>
N'-[3,5-bis(trifluoromethyl)benzoyl]-3,4-dimethoxy-benzohydrazide

> <PUBCHEM_IUPAC_INCHI>
InChI=1S/C18H14F6N2O4/c1-29-13-4-3-9(7-14(13)30-2)15(27)25-26-16(28)10-5-11(17(19,20)21)8-12(6-10)18(22,23)24/h3-8H,1-2H3,(H,25,27)(H,26,28)

> <PUBCHEM_IUPAC_INCHIKEY>
AZQHNEWAHPJXLZ-UHFFFAOYSA-N

> <PUBCHEM_XLOGP3>
4.3

> <PUBCHEM_EXACT_MASS>
436.085776

> <PUBCHEM_MOLECULAR_FORMULA>
C18H14F6N2O4

> <PUBCHEM_MOLECULAR_WEIGHT>
436.305179

> <PUBCHEM_OPENEYE_CAN_SMILES>
COC1=C(C=C(C=C1)C(=O)NNC(=O)C2=CC(=CC(=C2)C(F)(F)F)C(F)(F)F)OC

> <PUBCHEM_OPENEYE_ISO_SMILES>
COC1=C(C=C(C=C1)C(=O)NNC(=O)C2=CC(=CC(=C2)C(F)(F)F)C(F)(F)F)OC

> <PUBCHEM_CACTVS_TPSA>
76.7

> <PUBCHEM_MONOISOTOPIC_WEIGHT>
436.085776

> <PUBCHEM_TOTAL_CHARGE>
0

> <PUBCHEM_HEAVY_ATOM_COUNT>
30

> <PUBCHEM_ATOM_DEF_STEREO_COUNT>
0

> <PUBCHEM_ATOM_UDEF_STEREO_COUNT>
0

> <PUBCHEM_BOND_DEF_STEREO_COUNT>
0

> <PUBCHEM_BOND_UDEF_STEREO_COUNT>
0

> <PUBCHEM_ISOTOPIC_ATOM_COUNT>
0

> <PUBCHEM_COMPONENT_COUNT>
1

> <PUBCHEM_CACTVS_TAUTO_COUNT>
4

> <PUBCHEM_COORDINATE_TYPE>
1
5
255

> <PUBCHEM_BONDANNOTATIONS>
13  16  8
13  17  8
14  17  8
14  18  8
15  16  8
15  18  8
22  23  8
22  27  8
23  24  8
24  26  8
26  28  8
27  28  8

$$$$
