4829524
  -OEChem-11301216562D

 36 37  0     0  0  0  0  0  0999 V2000
    4.7320    2.5000    0.0000 S   0  0  0  0  0  0  0  0  0  0  0  0
    3.0000   -5.5000    0.0000 F   0  0  0  0  0  0  0  0  0  0  0  0
    2.0000   -4.5000    0.0000 F   0  0  0  0  0  0  0  0  0  0  0  0
    4.0000   -4.5000    0.0000 F   0  0  0  0  0  0  0  0  0  0  0  0
    5.7320    2.5000    0.0000 O   0  0  0  0  0  0  0  0  0  0  0  0
    3.7320    2.5000    0.0000 O   0  0  0  0  0  0  0  0  0  0  0  0
    2.1340   -3.0000    0.0000 O   0  0  0  0  0  0  0  0  0  0  0  0
    4.7320    3.5000    0.0000 N   0  0  0  0  0  0  0  0  0  0  0  0
    4.7320   -1.5000    0.0000 N   0  0  0  0  0  0  0  0  0  0  0  0
    5.5981    5.0000    0.0000 N   0  0  0  0  0  0  0  0  0  0  0  0
    6.4641    3.5000    0.0000 N   0  0  0  0  0  0  0  0  0  0  0  0
    4.7320    1.5000    0.0000 C   0  0  0  0  0  0  0  0  0  0  0  0
    3.8660    1.0000    0.0000 C   0  0  0  0  0  0  0  0  0  0  0  0
    5.5981    1.0000    0.0000 C   0  0  0  0  0  0  0  0  0  0  0  0
    4.7320   -0.5000    0.0000 C   0  0  0  0  0  0  0  0  0  0  0  0
    3.8660    0.0000    0.0000 C   0  0  0  0  0  0  0  0  0  0  0  0
    5.5981    0.0000    0.0000 C   0  0  0  0  0  0  0  0  0  0  0  0
    5.5981    4.0000    0.0000 C   0  0  0  0  0  0  0  0  0  0  0  0
    3.8660   -2.0000    0.0000 C   0  0  0  0  0  0  0  0  0  0  0  0
    3.8660   -3.0000    0.0000 C   0  0  0  0  0  0  0  0  0  0  0  0
    6.4641    5.5000    0.0000 C   0  0  0  0  0  0  0  0  0  0  0  0
    7.3301    4.0000    0.0000 C   0  0  0  0  0  0  0  0  0  0  0  0
    7.3301    5.0000    0.0000 C   0  0  0  0  0  0  0  0  0  0  0  0
    3.0000   -3.5000    0.0000 C   0  0  0  0  0  0  0  0  0  0  0  0
    3.0000   -4.5000    0.0000 C   0  0  0  0  0  0  0  0  0  0  0  0
    3.3291    1.3100    0.0000 H   0  0  0  0  0  0  0  0  0  0  0  0
    6.1350    1.3100    0.0000 H   0  0  0  0  0  0  0  0  0  0  0  0
    3.3291   -0.3100    0.0000 H   0  0  0  0  0  0  0  0  0  0  0  0
    6.1350   -0.3100    0.0000 H   0  0  0  0  0  0  0  0  0  0  0  0
    4.1951    3.8100    0.0000 H   0  0  0  0  0  0  0  0  0  0  0  0
    5.2690   -1.8100    0.0000 H   0  0  0  0  0  0  0  0  0  0  0  0
    3.3291   -1.6900    0.0000 H   0  0  0  0  0  0  0  0  0  0  0  0
    4.4030   -3.3100    0.0000 H   0  0  0  0  0  0  0  0  0  0  0  0
    6.4641    6.1200    0.0000 H   0  0  0  0  0  0  0  0  0  0  0  0
    7.8671    3.6900    0.0000 H   0  0  0  0  0  0  0  0  0  0  0  0
    7.8671    5.3100    0.0000 H   0  0  0  0  0  0  0  0  0  0  0  0
  1  5  2  0  0  0  0
  1  6  2  0  0  0  0
  1  8  1  0  0  0  0
  1 12  1  0  0  0  0
  2 25  1  0  0  0  0
  3 25  1  0  0  0  0
  4 25  1  0  0  0  0
  7 24  2  0  0  0  0
  8 18  1  0  0  0  0
  8 30  1  0  0  0  0
  9 15  1  0  0  0  0
  9 19  1  0  0  0  0
  9 31  1  0  0  0  0
 10 18  1  0  0  0  0
 10 21  2  0  0  0  0
 11 18  2  0  0  0  0
 11 22  1  0  0  0  0
 12 13  2  0  0  0  0
 12 14  1  0  0  0  0
 13 16  1  0  0  0  0
 13 26  1  0  0  0  0
 14 17  2  0  0  0  0
 14 27  1  0  0  0  0
 15 16  2  0  0  0  0
 15 17  1  0  0  0  0
 16 28  1  0  0  0  0
 17 29  1  0  0  0  0
 19 20  2  3  0  0  0
 19 32  1  0  0  0  0
 20 24  1  0  0  0  0
 20 33  1  0  0  0  0
 21 23  1  0  0  0  0
 21 34  1  0  0  0  0
 22 23  2  0  0  0  0
 22 35  1  0  0  0  0
 23 36  1  0  0  0  0
 24 25  1  0  0  0  0
M  END
> <PUBCHEM_COMPOUND_CID>
4829524

> <PUBCHEM_COMPOUND_CANONICALIZED>
1

> <PUBCHEM_CACTVS_COMPLEXITY>
575

> <PUBCHEM_CACTVS_HBOND_ACCEPTOR>
10

> <PUBCHEM_CACTVS_HBOND_DONOR>
2

> <PUBCHEM_CACTVS_ROTATABLE_BOND>
6

> <PUBCHEM_CACTVS_SUBSKEYS>
AAADccBzsYBAAAAAAAAAAAAAAAAAAAAAAAA8QAAAAAAAAAABwAAAHwQQQAAACAzB0hQ90ZbIEAKoALR3ZHDCgDkxAqAJ2Lg4ZNiIKKLA2dGEJAhokAJIyOcQAAAAAAQAAAAAAAAACAAAAAAAAAAAAAAAAA==

> <PUBCHEM_IUPAC_OPENEYE_NAME>
N-pyrimidin-2-yl-4-[(4,4,4-trifluoro-3-oxo-but-1-enyl)amino]benzenesulfonamide

> <PUBCHEM_IUPAC_CAS_NAME>
N-(2-pyrimidinyl)-4-[(4,4,4-trifluoro-3-oxobut-1-enyl)amino]benzenesulfonamide

> <PUBCHEM_IUPAC_NAME>
N-pyrimidin-2-yl-4-[(4,4,4-trifluoro-3-oxobut-1-enyl)amino]benzenesulfonamide

> <PUBCHEM_IUPAC_SYSTEMATIC_NAME>
N-pyrimidin-2-yl-4-[[4,4,4-tris(fluoranyl)-3-oxidanylidene-but-1-enyl]amino]benzenesulfonamide

> <PUBCHEM_IUPAC_TRADITIONAL_NAME>
N-(2-pyrimidyl)-4-[(4,4,4-trifluoro-3-keto-but-1-enyl)amino]benzenesulfonamide

> <PUBCHEM_IUPAC_INCHI>
InChI=1S/C14H11F3N4O3S/c15-14(16,17)12(22)6-9-18-10-2-4-11(5-3-10)25(23,24)21-13-19-7-1-8-20-13/h1-9,18H,(H,19,20,21)

> <PUBCHEM_IUPAC_INCHIKEY>
OSWLXDHJLZWAMR-UHFFFAOYSA-N

> <PUBCHEM_XLOGP3>
2.1

> <PUBCHEM_EXACT_MASS>
372.050396

> <PUBCHEM_MOLECULAR_FORMULA>
C14H11F3N4O3S

> <PUBCHEM_MOLECULAR_WEIGHT>
372.32235

> <PUBCHEM_OPENEYE_CAN_SMILES>
C1=CN=C(N=C1)NS(=O)(=O)C2=CC=C(C=C2)NC=CC(=O)C(F)(F)F

> <PUBCHEM_OPENEYE_ISO_SMILES>
C1=CN=C(N=C1)NS(=O)(=O)C2=CC=C(C=C2)NC=CC(=O)C(F)(F)F

> <PUBCHEM_CACTVS_TPSA>
109

> <PUBCHEM_MONOISOTOPIC_WEIGHT>
372.050396

> <PUBCHEM_TOTAL_CHARGE>
0

> <PUBCHEM_HEAVY_ATOM_COUNT>
25

> <PUBCHEM_ATOM_DEF_STEREO_COUNT>
0

> <PUBCHEM_ATOM_UDEF_STEREO_COUNT>
0

> <PUBCHEM_BOND_DEF_STEREO_COUNT>
0

> <PUBCHEM_BOND_UDEF_STEREO_COUNT>
1

> <PUBCHEM_ISOTOPIC_ATOM_COUNT>
0

> <PUBCHEM_COMPONENT_COUNT>
1

> <PUBCHEM_CACTVS_TAUTO_COUNT>
6

> <PUBCHEM_COORDINATE_TYPE>
1
5
255

> <PUBCHEM_BONDANNOTATIONS>
10  18  8
10  21  8
11  18  8
11  22  8
12  13  8
12  14  8
13  16  8
14  17  8
15  16  8
15  17  8
19  20  1
21  23  8
22  23  8

$$$$
4840411
  -OEChem-11301216572D

 28 29  0     1  0  0  0  0  0999 V2000
    5.9641    4.4330    0.0000 Cl  0  0  0  0  0  0  0  0  0  0  0  0
    6.8301    2.9330    0.0000 Cl  0  0  0  0  0  0  0  0  0  0  0  0
    2.0000   -3.4330    0.0000 Cl  0  0  0  0  0  0  0  0  0  0  0  0
    3.7320   -4.4330    0.0000 Cl  0  0  0  0  0  0  0  0  0  0  0  0
    5.4641   -0.4330    0.0000 O   0  0  0  0  0  0  0  0  0  0  0  0
    4.5981    1.0670    0.0000 N   0  0  0  0  0  0  0  0  0  0  0  0
    3.7320   -0.4330    0.0000 N   0  0  0  0  0  0  0  0  0  0  0  0
    5.4641    2.5670    0.0000 C   0  0  3  0  0  0  0  0  0  0  0  0
    5.9641    3.4330    0.0000 C   0  0  0  0  0  0  0  0  0  0  0  0
    4.9641    3.4330    0.0000 C   0  0  0  0  0  0  0  0  0  0  0  0
    5.4641    1.5670    0.0000 C   0  0  0  0  0  0  0  0  0  0  0  0
    4.5981    0.0670    0.0000 C   0  0  0  0  0  0  0  0  0  0  0  0
    3.7320   -1.4330    0.0000 C   0  0  0  0  0  0  0  0  0  0  0  0
    2.8660   -1.9330    0.0000 C   0  0  0  0  0  0  0  0  0  0  0  0
    4.5981   -1.9330    0.0000 C   0  0  0  0  0  0  0  0  0  0  0  0
    2.8660   -2.9330    0.0000 C   0  0  0  0  0  0  0  0  0  0  0  0
    4.5981   -2.9330    0.0000 C   0  0  0  0  0  0  0  0  0  0  0  0
    3.7320   -3.4330    0.0000 C   0  0  0  0  0  0  0  0  0  0  0  0
    6.2851    2.3470    0.0000 H   0  0  0  0  0  0  0  0  0  0  0  0
    4.8564    4.0436    0.0000 H   0  0  0  0  0  0  0  0  0  0  0  0
    4.3815    3.2210    0.0000 H   0  0  0  0  0  0  0  0  0  0  0  0
    5.6762    0.9844    0.0000 H   0  0  0  0  0  0  0  0  0  0  0  0
    6.0747    1.6746    0.0000 H   0  0  0  0  0  0  0  0  0  0  0  0
    4.0611    1.3770    0.0000 H   0  0  0  0  0  0  0  0  0  0  0  0
    3.1951   -0.1230    0.0000 H   0  0  0  0  0  0  0  0  0  0  0  0
    2.3291   -1.6230    0.0000 H   0  0  0  0  0  0  0  0  0  0  0  0
    5.1350   -1.6230    0.0000 H   0  0  0  0  0  0  0  0  0  0  0  0
    5.1350   -3.2430    0.0000 H   0  0  0  0  0  0  0  0  0  0  0  0
  1  9  1  0  0  0  0
  2  9  1  0  0  0  0
  3 16  1  0  0  0  0
  4 18  1  0  0  0  0
  5 12  2  0  0  0  0
  6 11  1  0  0  0  0
  6 12  1  0  0  0  0
  6 24  1  0  0  0  0
  7 12  1  0  0  0  0
  7 13  1  0  0  0  0
  7 25  1  0  0  0  0
  8  9  1  0  0  0  0
  8 10  1  0  0  0  0
  8 11  1  0  0  0  0
  8 19  1  0  0  0  0
  9 10  1  0  0  0  0
 10 20  1  0  0  0  0
 10 21  1  0  0  0  0
 11 22  1  0  0  0  0
 11 23  1  0  0  0  0
 13 14  2  0  0  0  0
 13 15  1  0  0  0  0
 14 16  1  0  0  0  0
 14 26  1  0  0  0  0
 15 17  2  0  0  0  0
 15 27  1  0  0  0  0
 16 18  2  0  0  0  0
 17 18  1  0  0  0  0
 17 28  1  0  0  0  0
M  END
> <PUBCHEM_COMPOUND_CID>
4840411

> <PUBCHEM_COMPOUND_CANONICALIZED>
1

> <PUBCHEM_CACTVS_COMPLEXITY>
326

> <PUBCHEM_CACTVS_HBOND_ACCEPTOR>
1

> <PUBCHEM_CACTVS_HBOND_DONOR>
2

> <PUBCHEM_CACTVS_ROTATABLE_BOND>
3

> <PUBCHEM_CACTVS_SUBSKEYS>
AAADccBzIAAHAAAAAAAAAAAAGAAAAAAAAAAwAAAAAAAAAAABAAAAHgIQAAAADQrBEKQxwILAAACIACRCUACCAAAhBwAIisAIZoiIICLBk5GEIAholgJIyCcQAAAAAABAAAIAAAQAAIAABAAACAAAAAAAAA==

> <PUBCHEM_IUPAC_OPENEYE_NAME>
1-[(2,2-dichlorocyclopropyl)methyl]-3-(3,4-dichlorophenyl)urea

> <PUBCHEM_IUPAC_CAS_NAME>
1-[(2,2-dichlorocyclopropyl)methyl]-3-(3,4-dichlorophenyl)urea

> <PUBCHEM_IUPAC_NAME>
1-[(2,2-dichlorocyclopropyl)methyl]-3-(3,4-dichlorophenyl)urea

> <PUBCHEM_IUPAC_SYSTEMATIC_NAME>
1-[[2,2-bis(chloranyl)cyclopropyl]methyl]-3-(3,4-dichlorophenyl)urea

> <PUBCHEM_IUPAC_TRADITIONAL_NAME>
1-[(2,2-dichlorocyclopropyl)methyl]-3-(3,4-dichlorophenyl)urea

> <PUBCHEM_IUPAC_INCHI>
InChI=1S/C11H10Cl4N2O/c12-8-2-1-7(3-9(8)13)17-10(18)16-5-6-4-11(6,14)15/h1-3,6H,4-5H2,(H2,16,17,18)

> <PUBCHEM_IUPAC_INCHIKEY>
CEOHLJLDAZQMNT-UHFFFAOYSA-N

> <PUBCHEM_XLOGP3>
4.7

> <PUBCHEM_EXACT_MASS>
327.951774

> <PUBCHEM_MOLECULAR_FORMULA>
C11H10Cl4N2O

> <PUBCHEM_MOLECULAR_WEIGHT>
328.0219

> <PUBCHEM_OPENEYE_CAN_SMILES>
C1C(C1(Cl)Cl)CNC(=O)NC2=CC(=C(C=C2)Cl)Cl

> <PUBCHEM_OPENEYE_ISO_SMILES>
C1C(C1(Cl)Cl)CNC(=O)NC2=CC(=C(C=C2)Cl)Cl

> <PUBCHEM_CACTVS_TPSA>
41.1

> <PUBCHEM_MONOISOTOPIC_WEIGHT>
325.954724

> <PUBCHEM_TOTAL_CHARGE>
0

> <PUBCHEM_HEAVY_ATOM_COUNT>
18

> <PUBCHEM_ATOM_DEF_STEREO_COUNT>
0

> <PUBCHEM_ATOM_UDEF_STEREO_COUNT>
1

> <PUBCHEM_BOND_DEF_STEREO_COUNT>
0

> <PUBCHEM_BOND_UDEF_STEREO_COUNT>
0

> <PUBCHEM_ISOTOPIC_ATOM_COUNT>
0

> <PUBCHEM_COMPONENT_COUNT>
1

> <PUBCHEM_CACTVS_TAUTO_COUNT>
3

> <PUBCHEM_COORDINATE_TYPE>
1
5
255

> <PUBCHEM_BONDANNOTATIONS>
13  14  8
13  15  8
14  16  8
15  17  8
16  18  8
17  18  8
8  19  3

$$$$
4844126
  -OEChem-11301216572D

 38 39  0     0  0  0  0  0  0999 V2000
    5.4641    2.2500    0.0000 S   0  0  0  0  0  0  0  0  0  0  0  0
    4.5981   -2.2500    0.0000 S   0  0  0  0  0  0  0  0  0  0  0  0
    4.5981   -4.2500    0.0000 F   0  0  0  0  0  0  0  0  0  0  0  0
    5.5981   -3.2500    0.0000 F   0  0  0  0  0  0  0  0  0  0  0  0
    3.5981   -3.2500    0.0000 F   0  0  0  0  0  0  0  0  0  0  0  0
    4.9641    3.1160    0.0000 O   0  0  0  0  0  0  0  0  0  0  0  0
    5.9641    1.3840    0.0000 O   0  0  0  0  0  0  0  0  0  0  0  0
    5.5981   -2.2500    0.0000 O   0  0  0  0  0  0  0  0  0  0  0  0
    3.5981   -2.2500    0.0000 O   0  0  0  0  0  0  0  0  0  0  0  0
    2.0000    0.2500    0.0000 O   0  5  0  0  0  0  0  0  0  0  0  0
    2.8660    1.7500    0.0000 O   0  0  0  0  0  0  0  0  0  0  0  0
    4.5981    1.7500    0.0000 N   0  0  0  0  0  0  0  0  0  0  0  0
    2.8660    0.7500    0.0000 N   0  3  0  0  0  0  0  0  0  0  0  0
    4.5981    0.7500    0.0000 C   0  0  0  0  0  0  0  0  0  0  0  0
    4.5981   -1.2500    0.0000 C   0  0  0  0  0  0  0  0  0  0  0  0
    3.7320    0.2500    0.0000 C   0  0  0  0  0  0  0  0  0  0  0  0
    3.7320   -0.7500    0.0000 C   0  0  0  0  0  0  0  0  0  0  0  0
    6.3301    2.7500    0.0000 C   0  0  0  0  0  0  0  0  0  0  0  0
    5.4641    0.2500    0.0000 C   0  0  0  0  0  0  0  0  0  0  0  0
    5.4641   -0.7500    0.0000 C   0  0  0  0  0  0  0  0  0  0  0  0
    7.1962    2.2500    0.0000 C   0  0  0  0  0  0  0  0  0  0  0  0
    6.3301    3.7500    0.0000 C   0  0  0  0  0  0  0  0  0  0  0  0
    4.5981   -3.2500    0.0000 C   0  0  0  0  0  0  0  0  0  0  0  0
    8.0622    3.7500    0.0000 C   0  0  0  0  0  0  0  0  0  0  0  0
    8.0622    2.7500    0.0000 C   0  0  0  0  0  0  0  0  0  0  0  0
    7.1962    4.2500    0.0000 C   0  0  0  0  0  0  0  0  0  0  0  0
    8.9282    4.2500    0.0000 C   0  0  0  0  0  0  0  0  0  0  0  0
    4.0611    2.0600    0.0000 H   0  0  0  0  0  0  0  0  0  0  0  0
    3.1951   -1.0600    0.0000 H   0  0  0  0  0  0  0  0  0  0  0  0
    6.0010    0.5600    0.0000 H   0  0  0  0  0  0  0  0  0  0  0  0
    6.0010   -1.0600    0.0000 H   0  0  0  0  0  0  0  0  0  0  0  0
    7.1962    1.6300    0.0000 H   0  0  0  0  0  0  0  0  0  0  0  0
    5.7932    4.0600    0.0000 H   0  0  0  0  0  0  0  0  0  0  0  0
    8.5991    2.4400    0.0000 H   0  0  0  0  0  0  0  0  0  0  0  0
    7.1962    4.8700    0.0000 H   0  0  0  0  0  0  0  0  0  0  0  0
    9.2382    3.7131    0.0000 H   0  0  0  0  0  0  0  0  0  0  0  0
    9.4651    4.5600    0.0000 H   0  0  0  0  0  0  0  0  0  0  0  0
    8.6182    4.7869    0.0000 H   0  0  0  0  0  0  0  0  0  0  0  0
  1  6  2  0  0  0  0
  1  7  2  0  0  0  0
  1 12  1  0  0  0  0
  1 18  1  0  0  0  0
  2  8  2  0  0  0  0
  2  9  2  0  0  0  0
  2 15  1  0  0  0  0
  2 23  1  0  0  0  0
  3 23  1  0  0  0  0
  4 23  1  0  0  0  0
  5 23  1  0  0  0  0
 10 13  1  0  0  0  0
 11 13  2  0  0  0  0
 12 14  1  0  0  0  0
 12 28  1  0  0  0  0
 13 16  1  0  0  0  0
 14 16  2  0  0  0  0
 14 19  1  0  0  0  0
 15 17  2  0  0  0  0
 15 20  1  0  0  0  0
 16 17  1  0  0  0  0
 17 29  1  0  0  0  0
 18 21  2  0  0  0  0
 18 22  1  0  0  0  0
 19 20  2  0  0  0  0
 19 30  1  0  0  0  0
 20 31  1  0  0  0  0
 21 25  1  0  0  0  0
 21 32  1  0  0  0  0
 22 26  2  0  0  0  0
 22 33  1  0  0  0  0
 24 25  2  0  0  0  0
 24 26  1  0  0  0  0
 24 27  1  0  0  0  0
 25 34  1  0  0  0  0
 26 35  1  0  0  0  0
 27 36  1  0  0  0  0
 27 37  1  0  0  0  0
 27 38  1  0  0  0  0
M  CHG  2  10  -1  13   1
M  END
> <PUBCHEM_COMPOUND_CID>
4844126

> <PUBCHEM_COMPOUND_CANONICALIZED>
1

> <PUBCHEM_CACTVS_COMPLEXITY>
744

> <PUBCHEM_CACTVS_HBOND_ACCEPTOR>
10

> <PUBCHEM_CACTVS_HBOND_DONOR>
1

> <PUBCHEM_CACTVS_ROTATABLE_BOND>
4

> <PUBCHEM_CACTVS_SUBSKEYS>
AAADccBzOYBgAAAAAAAAAAAAAAAAAAAAAAAwYAAAAAAAAAABQAAAHQQUQAAADAiBWBAywYBQQAqBAiRCQ3DCABAgChAoiBgAdIoIYCKgkZGAIARgkIAIyAcQgAAOEAQAACAAACAgCAAAQAAAQAAAAAAAAA==

> <PUBCHEM_IUPAC_OPENEYE_NAME>
4-methyl-N-[2-nitro-4-(trifluoromethylsulfonyl)phenyl]benzenesulfonamide

> <PUBCHEM_IUPAC_CAS_NAME>
4-methyl-N-[2-nitro-4-(trifluoromethylsulfonyl)phenyl]benzenesulfonamide

> <PUBCHEM_IUPAC_NAME>
4-methyl-N-[2-nitro-4-(trifluoromethylsulfonyl)phenyl]benzenesulfonamide

> <PUBCHEM_IUPAC_SYSTEMATIC_NAME>
4-methyl-N-[2-nitro-4-(trifluoromethylsulfonyl)phenyl]benzenesulfonamide

> <PUBCHEM_IUPAC_TRADITIONAL_NAME>
4-methyl-N-(2-nitro-4-triflyl-phenyl)benzenesulfonamide

> <PUBCHEM_IUPAC_INCHI>
InChI=1S/C14H11F3N2O6S2/c1-9-2-4-10(5-3-9)27(24,25)18-12-7-6-11(8-13(12)19(20)21)26(22,23)14(15,16)17/h2-8,18H,1H3

> <PUBCHEM_IUPAC_INCHIKEY>
YABWFRIIGHTIRM-UHFFFAOYSA-N

> <PUBCHEM_XLOGP3>
3.6

> <PUBCHEM_EXACT_MASS>
424.001063

> <PUBCHEM_MOLECULAR_FORMULA>
C14H11F3N2O6S2

> <PUBCHEM_MOLECULAR_WEIGHT>
424.37215

> <PUBCHEM_OPENEYE_CAN_SMILES>
CC1=CC=C(C=C1)S(=O)(=O)NC2=C(C=C(C=C2)S(=O)(=O)C(F)(F)F)[N+](=O)[O-]

> <PUBCHEM_OPENEYE_ISO_SMILES>
CC1=CC=C(C=C1)S(=O)(=O)NC2=C(C=C(C=C2)S(=O)(=O)C(F)(F)F)[N+](=O)[O-]

> <PUBCHEM_CACTVS_TPSA>
143

> <PUBCHEM_MONOISOTOPIC_WEIGHT>
424.001063

> <PUBCHEM_TOTAL_CHARGE>
0

> <PUBCHEM_HEAVY_ATOM_COUNT>
27

> <PUBCHEM_ATOM_DEF_STEREO_COUNT>
0

> <PUBCHEM_ATOM_UDEF_STEREO_COUNT>
0

> <PUBCHEM_BOND_DEF_STEREO_COUNT>
0

> <PUBCHEM_BOND_UDEF_STEREO_COUNT>
0

> <PUBCHEM_ISOTOPIC_ATOM_COUNT>
0

> <PUBCHEM_COMPONENT_COUNT>
1

> <PUBCHEM_CACTVS_TAUTO_COUNT>
1

> <PUBCHEM_COORDINATE_TYPE>
1
5
255

> <PUBCHEM_BONDANNOTATIONS>
14  16  8
14  19  8
15  17  8
15  20  8
16  17  8
18  21  8
18  22  8
19  20  8
21  25  8
22  26  8
24  25  8
24  26  8

$$$$
4844237
  -OEChem-11301216572D

 39 41  0     0  0  0  0  0  0999 V2000
   10.1456    3.8881    0.0000 Cl  0  0  0  0  0  0  0  0  0  0  0  0
   10.8600    0.4985    0.0000 Cl  0  0  0  0  0  0  0  0  0  0  0  0
    7.9244   -0.1202    0.0000 O   0  0  0  0  0  0  0  0  0  0  0  0
    4.6783   -3.2988    0.0000 N   0  0  0  0  0  0  0  0  0  0  0  0
    7.5673    1.5747    0.0000 N   0  0  0  0  0  0  0  0  0  0  0  0
    4.9889   -0.7388    0.0000 C   0  0  0  0  0  0  0  0  0  0  0  0
    4.6783   -1.6893    0.0000 C   0  0  0  0  0  0  0  0  0  0  0  0
    5.9674   -0.5326    0.0000 C   0  0  0  0  0  0  0  0  0  0  0  0
    3.7320   -1.9941    0.0000 C   0  0  0  0  0  0  0  0  0  0  0  0
    3.7320   -2.9941    0.0000 C   0  0  0  0  0  0  0  0  0  0  0  0
    6.2781    0.4179    0.0000 C   0  0  0  0  0  0  0  0  0  0  0  0
    5.2619   -2.4941    0.0000 C   0  0  0  0  0  0  0  0  0  0  0  0
    2.8660   -1.4941    0.0000 C   0  0  0  0  0  0  0  0  0  0  0  0
    2.8660   -3.4941    0.0000 C   0  0  0  0  0  0  0  0  0  0  0  0
    7.2566    0.6241    0.0000 C   0  0  0  0  0  0  0  0  0  0  0  0
    2.0000   -1.9941    0.0000 C   0  0  0  0  0  0  0  0  0  0  0  0
    2.0000   -2.9941    0.0000 C   0  0  0  0  0  0  0  0  0  0  0  0
    8.5458    1.7809    0.0000 C   0  0  0  0  0  0  0  0  0  0  0  0
    9.2136    1.0366    0.0000 C   0  0  0  0  0  0  0  0  0  0  0  0
    8.8564    2.7314    0.0000 C   0  0  0  0  0  0  0  0  0  0  0  0
    9.8349    2.9376    0.0000 C   0  0  0  0  0  0  0  0  0  0  0  0
   10.1921    1.2428    0.0000 C   0  0  0  0  0  0  0  0  0  0  0  0
   10.5028    2.1933    0.0000 C   0  0  0  0  0  0  0  0  0  0  0  0
    4.9684   -0.1192    0.0000 H   0  0  0  0  0  0  0  0  0  0  0  0
    4.3751   -0.6515    0.0000 H   0  0  0  0  0  0  0  0  0  0  0  0
    5.9880   -1.1523    0.0000 H   0  0  0  0  0  0  0  0  0  0  0  0
    6.5812   -0.6200    0.0000 H   0  0  0  0  0  0  0  0  0  0  0  0
    6.2575    1.0376    0.0000 H   0  0  0  0  0  0  0  0  0  0  0  0
    5.6643    0.5053    0.0000 H   0  0  0  0  0  0  0  0  0  0  0  0
    5.8819   -2.4941    0.0000 H   0  0  0  0  0  0  0  0  0  0  0  0
    4.8709   -3.8881    0.0000 H   0  0  0  0  0  0  0  0  0  0  0  0
    2.8660   -0.8741    0.0000 H   0  0  0  0  0  0  0  0  0  0  0  0
    2.8660   -4.1141    0.0000 H   0  0  0  0  0  0  0  0  0  0  0  0
    1.4631   -1.6841    0.0000 H   0  0  0  0  0  0  0  0  0  0  0  0
    1.4631   -3.3041    0.0000 H   0  0  0  0  0  0  0  0  0  0  0  0
    7.1532    2.0361    0.0000 H   0  0  0  0  0  0  0  0  0  0  0  0
    9.0210    0.4472    0.0000 H   0  0  0  0  0  0  0  0  0  0  0  0
    8.4424    3.1929    0.0000 H   0  0  0  0  0  0  0  0  0  0  0  0
   11.1095    2.3212    0.0000 H   0  0  0  0  0  0  0  0  0  0  0  0
  1 21  1  0  0  0  0
  2 22  1  0  0  0  0
  3 15  2  0  0  0  0
  4 10  1  0  0  0  0
  4 12  1  0  0  0  0
  4 31  1  0  0  0  0
  5 15  1  0  0  0  0
  5 18  1  0  0  0  0
  5 36  1  0  0  0  0
  6  7  1  0  0  0  0
  6  8  1  0  0  0  0
  6 24  1  0  0  0  0
  6 25  1  0  0  0  0
  7  9  1  0  0  0  0
  7 12  2  0  0  0  0
  8 11  1  0  0  0  0
  8 26  1  0  0  0  0
  8 27  1  0  0  0  0
  9 10  1  0  0  0  0
  9 13  2  0  0  0  0
 10 14  2  0  0  0  0
 11 15  1  0  0  0  0
 11 28  1  0  0  0  0
 11 29  1  0  0  0  0
 12 30  1  0  0  0  0
 13 16  1  0  0  0  0
 13 32  1  0  0  0  0
 14 17  1  0  0  0  0
 14 33  1  0  0  0  0
 16 17  2  0  0  0  0
 16 34  1  0  0  0  0
 17 35  1  0  0  0  0
 18 19  2  0  0  0  0
 18 20  1  0  0  0  0
 19 22  1  0  0  0  0
 19 37  1  0  0  0  0
 20 21  2  0  0  0  0
 20 38  1  0  0  0  0
 21 23  1  0  0  0  0
 22 23  2  0  0  0  0
 23 39  1  0  0  0  0
M  END
> <PUBCHEM_COMPOUND_CID>
4844237

> <PUBCHEM_COMPOUND_CANONICALIZED>
1

> <PUBCHEM_CACTVS_COMPLEXITY>
397

> <PUBCHEM_CACTVS_HBOND_ACCEPTOR>
1

> <PUBCHEM_CACTVS_HBOND_DONOR>
2

> <PUBCHEM_CACTVS_ROTATABLE_BOND>
5

> <PUBCHEM_CACTVS_SUBSKEYS>
AAADceB7IAAGAAAAAAAAAAAAAAAAAWAAAAAwYAAAAAAAAFgB9AAAHgIQAAAADArBniQ8wPLJkACoAzV3VACCgCAxByAI2aE4ZpgIIPLBk5GEIAhglADIyAcYiMCOgAAAAAKCAAAAAAAABQQAAAAAAAAAAA==

> <PUBCHEM_IUPAC_OPENEYE_NAME>
N-(3,5-dichlorophenyl)-4-(1H-indol-3-yl)butanamide

> <PUBCHEM_IUPAC_CAS_NAME>
N-(3,5-dichlorophenyl)-4-(1H-indol-3-yl)butanamide

> <PUBCHEM_IUPAC_NAME>
N-(3,5-dichlorophenyl)-4-(1H-indol-3-yl)butanamide

> <PUBCHEM_IUPAC_SYSTEMATIC_NAME>
N-[3,5-bis(chloranyl)phenyl]-4-(1H-indol-3-yl)butanamide

> <PUBCHEM_IUPAC_TRADITIONAL_NAME>
N-(3,5-dichlorophenyl)-4-(1H-indol-3-yl)butyramide

> <PUBCHEM_IUPAC_INCHI>
InChI=1S/C18H16Cl2N2O/c19-13-8-14(20)10-15(9-13)22-18(23)7-3-4-12-11-21-17-6-2-1-5-16(12)17/h1-2,5-6,8-11,21H,3-4,7H2,(H,22,23)

> <PUBCHEM_IUPAC_INCHIKEY>
TZRVSOJHULBHMY-UHFFFAOYSA-N

> <PUBCHEM_XLOGP3>
4.9

> <PUBCHEM_EXACT_MASS>
346.063969

> <PUBCHEM_MOLECULAR_FORMULA>
C18H16Cl2N2O

> <PUBCHEM_MOLECULAR_WEIGHT>
347.23844

> <PUBCHEM_OPENEYE_CAN_SMILES>
C1=CC=C2C(=C1)C(=CN2)CCCC(=O)NC3=CC(=CC(=C3)Cl)Cl

> <PUBCHEM_OPENEYE_ISO_SMILES>
C1=CC=C2C(=C1)C(=CN2)CCCC(=O)NC3=CC(=CC(=C3)Cl)Cl

> <PUBCHEM_CACTVS_TPSA>
44.9

> <PUBCHEM_MONOISOTOPIC_WEIGHT>
346.063969

> <PUBCHEM_TOTAL_CHARGE>
0

> <PUBCHEM_HEAVY_ATOM_COUNT>
23

> <PUBCHEM_ATOM_DEF_STEREO_COUNT>
0

> <PUBCHEM_ATOM_UDEF_STEREO_COUNT>
0

> <PUBCHEM_BOND_DEF_STEREO_COUNT>
0

> <PUBCHEM_BOND_UDEF_STEREO_COUNT>
0

> <PUBCHEM_ISOTOPIC_ATOM_COUNT>
0

> <PUBCHEM_COMPONENT_COUNT>
1

> <PUBCHEM_CACTVS_TAUTO_COUNT>
3

> <PUBCHEM_COORDINATE_TYPE>
1
5
255

> <PUBCHEM_BONDANNOTATIONS>
10  14  8
13  16  8
14  17  8
16  17  8
18  19  8
18  20  8
19  22  8
20  21  8
21  23  8
22  23  8
4  10  8
4  12  8
7  12  8
7  9  8
9  10  8
9  13  8

$$$$
4844722
  -OEChem-11301216572D

 46 49  0     1  0  0  0  0  0999 V2000
    6.6353   -1.5584    0.0000 O   0  0  0  0  0  0  0  0  0  0  0  0
    6.2781    0.1364    0.0000 N   0  0  0  0  0  0  0  0  0  0  0  0
    4.6783   -3.5803    0.0000 N   0  0  0  0  0  0  0  0  0  0  0  0
    9.3508    2.1981    0.0000 C   0  0  3  0  0  0  0  0  0  0  0  0
    9.6615    3.1486    0.0000 C   0  0  3  0  0  0  0  0  0  0  0  0
    7.5673    1.2932    0.0000 C   0  0  3  0  0  0  0  0  0  0  0  0
    8.9791    4.1696    0.0000 C   0  0  0  0  0  0  0  0  0  0  0  0
    7.1148    2.1850    0.0000 C   0  0  0  0  0  0  0  0  0  0  0  0
   11.1391    1.3413    0.0000 C   0  0  0  0  0  0  0  0  0  0  0  0
   11.4498    2.2918    0.0000 C   0  0  0  0  0  0  0  0  0  0  0  0
    7.2566    0.3427    0.0000 C   0  0  3  0  0  0  0  0  0  0  0  0
    7.9244   -0.4016    0.0000 C   0  0  0  0  0  0  0  0  0  0  0  0
    5.9674   -0.8141    0.0000 C   0  0  0  0  0  0  0  0  0  0  0  0
    4.9889   -1.0203    0.0000 C   0  0  0  0  0  0  0  0  0  0  0  0
    4.6783   -1.9708    0.0000 C   0  0  0  0  0  0  0  0  0  0  0  0
    3.7320   -2.2756    0.0000 C   0  0  0  0  0  0  0  0  0  0  0  0
    5.2619   -2.7756    0.0000 C   0  0  0  0  0  0  0  0  0  0  0  0
    3.7320   -3.2756    0.0000 C   0  0  0  0  0  0  0  0  0  0  0  0
    2.8660   -1.7756    0.0000 C   0  0  0  0  0  0  0  0  0  0  0  0
    2.8660   -3.7756    0.0000 C   0  0  0  0  0  0  0  0  0  0  0  0
    2.0000   -2.2756    0.0000 C   0  0  0  0  0  0  0  0  0  0  0  0
    2.0000   -3.2756    0.0000 C   0  0  0  0  0  0  0  0  0  0  0  0
    9.3579    1.5781    0.0000 H   0  0  0  0  0  0  0  0  0  0  0  0
    9.6352    2.5292    0.0000 H   0  0  0  0  0  0  0  0  0  0  0  0
    6.9491    1.2456    0.0000 H   0  0  0  0  0  0  0  0  0  0  0  0
    9.3252    4.6840    0.0000 H   0  0  0  0  0  0  0  0  0  0  0  0
    8.3718    4.2946    0.0000 H   0  0  0  0  0  0  0  0  0  0  0  0
    6.8747    2.7566    0.0000 H   0  0  0  0  0  0  0  0  0  0  0  0
    6.5522    1.9245    0.0000 H   0  0  0  0  0  0  0  0  0  0  0  0
   10.8959    0.7710    0.0000 H   0  0  0  0  0  0  0  0  0  0  0  0
   11.7195    1.1232    0.0000 H   0  0  0  0  0  0  0  0  0  0  0  0
   12.0301    2.0737    0.0000 H   0  0  0  0  0  0  0  0  0  0  0  0
   11.6930    2.8621    0.0000 H   0  0  0  0  0  0  0  0  0  0  0  0
    7.0640   -0.2467    0.0000 H   0  0  0  0  0  0  0  0  0  0  0  0
    7.4630   -0.8157    0.0000 H   0  0  0  0  0  0  0  0  0  0  0  0
    8.3385   -0.8631    0.0000 H   0  0  0  0  0  0  0  0  0  0  0  0
    8.3859    0.0124    0.0000 H   0  0  0  0  0  0  0  0  0  0  0  0
    5.8640    0.5979    0.0000 H   0  0  0  0  0  0  0  0  0  0  0  0
    4.9684   -0.4006    0.0000 H   0  0  0  0  0  0  0  0  0  0  0  0
    4.3751   -0.9329    0.0000 H   0  0  0  0  0  0  0  0  0  0  0  0
    5.8819   -2.7756    0.0000 H   0  0  0  0  0  0  0  0  0  0  0  0
    4.8709   -4.1696    0.0000 H   0  0  0  0  0  0  0  0  0  0  0  0
    2.8660   -1.1556    0.0000 H   0  0  0  0  0  0  0  0  0  0  0  0
    2.8660   -4.3956    0.0000 H   0  0  0  0  0  0  0  0  0  0  0  0
    1.4631   -1.9656    0.0000 H   0  0  0  0  0  0  0  0  0  0  0  0
    1.4631   -3.5856    0.0000 H   0  0  0  0  0  0  0  0  0  0  0  0
  1 13  2  0  0  0  0
  2 11  1  0  0  0  0
  2 13  1  0  0  0  0
  2 38  1  0  0  0  0
  3 17  1  0  0  0  0
  3 18  1  0  0  0  0
  3 42  1  0  0  0  0
  4  6  1  0  0  0  0
  4  7  1  0  0  0  0
  4  9  1  0  0  0  0
  4 23  1  0  0  0  0
  5  7  1  0  0  0  0
  5  8  1  0  0  0  0
  5 10  1  0  0  0  0
  5 24  1  0  0  0  0
  6  8  1  0  0  0  0
  6 11  1  0  0  0  0
  6 25  1  0  0  0  0
  7 26  1  0  0  0  0
  7 27  1  0  0  0  0
  8 28  1  0  0  0  0
  8 29  1  0  0  0  0
  9 10  1  0  0  0  0
  9 30  1  0  0  0  0
  9 31  1  0  0  0  0
 10 32  1  0  0  0  0
 10 33  1  0  0  0  0
 11 12  1  0  0  0  0
 11 34  1  0  0  0  0
 12 35  1  0  0  0  0
 12 36  1  0  0  0  0
 12 37  1  0  0  0  0
 13 14  1  0  0  0  0
 14 15  1  0  0  0  0
 14 39  1  0  0  0  0
 14 40  1  0  0  0  0
 15 16  1  0  0  0  0
 15 17  2  0  0  0  0
 16 18  1  0  0  0  0
 16 19  2  0  0  0  0
 17 41  1  0  0  0  0
 18 20  2  0  0  0  0
 19 21  1  0  0  0  0
 19 43  1  0  0  0  0
 20 22  1  0  0  0  0
 20 44  1  0  0  0  0
 21 22  2  0  0  0  0
 21 45  1  0  0  0  0
 22 46  1  0  0  0  0
M  END
> <PUBCHEM_COMPOUND_CID>
4844722

> <PUBCHEM_COMPOUND_CANONICALIZED>
1

> <PUBCHEM_CACTVS_COMPLEXITY>
424

> <PUBCHEM_CACTVS_HBOND_ACCEPTOR>
1

> <PUBCHEM_CACTVS_HBOND_DONOR>
2

> <PUBCHEM_CACTVS_ROTATABLE_BOND>
4

> <PUBCHEM_CACTVS_SUBSKEYS>
AAADceB7IAAAAAAAAAAAAAAAAAAAAeMEAAAwYAAAAAAAAFgB8AAAHgAQAAAADSjBngQ+wPLJkACoAzV3VACCgCAxAiAI2aE4ZJgIIPLAlZGEIAhglgDIyAccicCegAAAAAACAAAAAAQAACQAAQAACAAAAA==

> <PUBCHEM_IUPAC_OPENEYE_NAME>
2-(1H-indol-3-yl)-N-(1-norbornan-2-ylethyl)acetamide

> <PUBCHEM_IUPAC_CAS_NAME>
N-[1-(3-bicyclo[2.2.1]heptanyl)ethyl]-2-(1H-indol-3-yl)acetamide

> <PUBCHEM_IUPAC_NAME>
N-[1-(3-bicyclo[2.2.1]heptanyl)ethyl]-2-(1H-indol-3-yl)acetamide

> <PUBCHEM_IUPAC_SYSTEMATIC_NAME>
N-[1-(3-bicyclo[2.2.1]heptanyl)ethyl]-2-(1H-indol-3-yl)ethanamide

> <PUBCHEM_IUPAC_TRADITIONAL_NAME>
2-(1H-indol-3-yl)-N-[1-(2-norbornyl)ethyl]acetamide

> <PUBCHEM_IUPAC_INCHI>
InChI=1S/C19H24N2O/c1-12(17-9-13-6-7-14(17)8-13)21-19(22)10-15-11-20-18-5-3-2-4-16(15)18/h2-5,11-14,17,20H,6-10H2,1H3,(H,21,22)

> <PUBCHEM_IUPAC_INCHIKEY>
QUJZFJXDSGVKPG-UHFFFAOYSA-N

> <PUBCHEM_XLOGP3>
3.9

> <PUBCHEM_EXACT_MASS>
296.188863

> <PUBCHEM_MOLECULAR_FORMULA>
C19H24N2O

> <PUBCHEM_MOLECULAR_WEIGHT>
296.40666

> <PUBCHEM_OPENEYE_CAN_SMILES>
CC(C1CC2CCC1C2)NC(=O)CC3=CNC4=CC=CC=C43

> <PUBCHEM_OPENEYE_ISO_SMILES>
CC(C1CC2CCC1C2)NC(=O)CC3=CNC4=CC=CC=C43

> <PUBCHEM_CACTVS_TPSA>
44.9

> <PUBCHEM_MONOISOTOPIC_WEIGHT>
296.188863

> <PUBCHEM_TOTAL_CHARGE>
0

> <PUBCHEM_HEAVY_ATOM_COUNT>
22

> <PUBCHEM_ATOM_DEF_STEREO_COUNT>
0

> <PUBCHEM_ATOM_UDEF_STEREO_COUNT>
4

> <PUBCHEM_BOND_DEF_STEREO_COUNT>
0

> <PUBCHEM_BOND_UDEF_STEREO_COUNT>
0

> <PUBCHEM_ISOTOPIC_ATOM_COUNT>
0

> <PUBCHEM_COMPONENT_COUNT>
1

> <PUBCHEM_CACTVS_TAUTO_COUNT>
2

> <PUBCHEM_COORDINATE_TYPE>
1
5
255

> <PUBCHEM_BONDANNOTATIONS>
11  12  3
15  16  8
15  17  8
16  18  8
16  19  8
18  20  8
19  21  8
20  22  8
21  22  8
3  17  8
3  18  8
4  9  3
5  10  3
6  8  3

$$$$
