50739500
  -OEChem-11301218002D

 49 52  0     0  0  0  0  0  0999 V2000
    6.8970    1.1900    0.0000 S   0  0  0  0  0  0  0  0  0  0  0  0
    4.2514    1.5967    0.0000 S   0  0  0  0  0  0  0  0  0  0  0  0
   16.5035   -0.5053    0.0000 O   0  0  0  0  0  0  0  0  0  0  0  0
   16.5035   -2.1147    0.0000 O   0  0  0  0  0  0  0  0  0  0  0  0
   12.9592   -0.3100    0.0000 O   0  0  0  0  0  0  0  0  0  0  0  0
    6.3970    0.3240    0.0000 O   0  0  0  0  0  0  0  0  0  0  0  0
    7.3970    2.0560    0.0000 O   0  0  0  0  0  0  0  0  0  0  0  0
   11.2272    0.6900    0.0000 O   0  0  0  0  0  0  0  0  0  0  0  0
    6.0310    1.6900    0.0000 N   0  0  0  0  0  0  0  0  0  0  0  0
   10.3611   -0.8100    0.0000 N   0  0  0  0  0  0  0  0  0  0  0  0
    5.0604    0.1955    0.0000 N   0  0  0  0  0  0  0  0  0  0  0  0
    4.0823   -0.0124    0.0000 N   0  0  0  0  0  0  0  0  0  0  0  0
    7.7631    0.6900    0.0000 C   0  0  0  0  0  0  0  0  0  0  0  0
    9.4951   -0.3100    0.0000 C   0  0  0  0  0  0  0  0  0  0  0  0
    7.7631   -0.3100    0.0000 C   0  0  0  0  0  0  0  0  0  0  0  0
    8.6291    1.1900    0.0000 C   0  0  0  0  0  0  0  0  0  0  0  0
    8.6291   -0.8100    0.0000 C   0  0  0  0  0  0  0  0  0  0  0  0
    9.4951    0.6900    0.0000 C   0  0  0  0  0  0  0  0  0  0  0  0
   15.5573   -0.8100    0.0000 C   0  0  0  0  0  0  0  0  0  0  0  0
   15.5573   -1.8100    0.0000 C   0  0  0  0  0  0  0  0  0  0  0  0
   13.8252   -0.8100    0.0000 C   0  0  0  0  0  0  0  0  0  0  0  0
   14.6913   -0.3100    0.0000 C   0  0  0  0  0  0  0  0  0  0  0  0
   14.6913   -2.3100    0.0000 C   0  0  0  0  0  0  0  0  0  0  0  0
   12.0932   -0.8100    0.0000 C   0  0  0  0  0  0  0  0  0  0  0  0
   13.8252   -1.8100    0.0000 C   0  0  0  0  0  0  0  0  0  0  0  0
    5.1650    1.1900    0.0000 C   0  0  0  0  0  0  0  0  0  0  0  0
   17.0871   -1.3100    0.0000 C   0  0  0  0  0  0  0  0  0  0  0  0
   11.2272   -0.3100    0.0000 C   0  0  0  0  0  0  0  0  0  0  0  0
    3.5823    0.8536    0.0000 C   0  0  0  0  0  0  0  0  0  0  0  0
    2.5878    0.9581    0.0000 C   0  0  0  0  0  0  0  0  0  0  0  0
    2.0000    0.1491    0.0000 C   0  0  0  0  0  0  0  0  0  0  0  0
    7.2261   -0.6200    0.0000 H   0  0  0  0  0  0  0  0  0  0  0  0
    8.6291    1.8100    0.0000 H   0  0  0  0  0  0  0  0  0  0  0  0
    8.6291   -1.4300    0.0000 H   0  0  0  0  0  0  0  0  0  0  0  0
   10.0320    1.0000    0.0000 H   0  0  0  0  0  0  0  0  0  0  0  0
    6.0310    2.3100    0.0000 H   0  0  0  0  0  0  0  0  0  0  0  0
   14.6913    0.3100    0.0000 H   0  0  0  0  0  0  0  0  0  0  0  0
   10.3611   -1.4300    0.0000 H   0  0  0  0  0  0  0  0  0  0  0  0
   14.6913   -2.9300    0.0000 H   0  0  0  0  0  0  0  0  0  0  0  0
   11.6947   -1.2850    0.0000 H   0  0  0  0  0  0  0  0  0  0  0  0
   12.4917   -1.2850    0.0000 H   0  0  0  0  0  0  0  0  0  0  0  0
   13.2883   -2.1200    0.0000 H   0  0  0  0  0  0  0  0  0  0  0  0
   17.5480   -1.7247    0.0000 H   0  0  0  0  0  0  0  0  0  0  0  0
   17.5480   -0.8953    0.0000 H   0  0  0  0  0  0  0  0  0  0  0  0
    2.7587    1.5541    0.0000 H   0  0  0  0  0  0  0  0  0  0  0  0
    2.0305    1.2299    0.0000 H   0  0  0  0  0  0  0  0  0  0  0  0
    1.4984    0.5135    0.0000 H   0  0  0  0  0  0  0  0  0  0  0  0
    1.6356   -0.3525    0.0000 H   0  0  0  0  0  0  0  0  0  0  0  0
    2.5016   -0.2153    0.0000 H   0  0  0  0  0  0  0  0  0  0  0  0
  1  6  2  0  0  0  0
  1  7  2  0  0  0  0
  1  9  1  0  0  0  0
  1 13  1  0  0  0  0
  2 26  1  0  0  0  0
  2 29  1  0  0  0  0
  3 19  1  0  0  0  0
  3 27  1  0  0  0  0
  4 20  1  0  0  0  0
  4 27  1  0  0  0  0
  5 21  1  0  0  0  0
  5 24  1  0  0  0  0
  8 28  2  0  0  0  0
  9 26  1  0  0  0  0
  9 36  1  0  0  0  0
 10 14  1  0  0  0  0
 10 28  1  0  0  0  0
 10 38  1  0  0  0  0
 11 12  1  0  0  0  0
 11 26  2  0  0  0  0
 12 29  2  0  0  0  0
 13 15  2  0  0  0  0
 13 16  1  0  0  0  0
 14 17  2  0  0  0  0
 14 18  1  0  0  0  0
 15 17  1  0  0  0  0
 15 32  1  0  0  0  0
 16 18  2  0  0  0  0
 16 33  1  0  0  0  0
 17 34  1  0  0  0  0
 18 35  1  0  0  0  0
 19 20  2  0  0  0  0
 19 22  1  0  0  0  0
 20 23  1  0  0  0  0
 21 22  2  0  0  0  0
 21 25  1  0  0  0  0
 22 37  1  0  0  0  0
 23 25  2  0  0  0  0
 23 39  1  0  0  0  0
 24 28  1  0  0  0  0
 24 40  1  0  0  0  0
 24 41  1  0  0  0  0
 25 42  1  0  0  0  0
 27 43  1  0  0  0  0
 27 44  1  0  0  0  0
 29 30  1  0  0  0  0
 30 31  1  0  0  0  0
 30 45  1  0  0  0  0
 30 46  1  0  0  0  0
 31 47  1  0  0  0  0
 31 48  1  0  0  0  0
 31 49  1  0  0  0  0
M  END
> <PUBCHEM_COMPOUND_CID>
50739500

> <PUBCHEM_COMPOUND_CANONICALIZED>
1

> <PUBCHEM_CACTVS_COMPLEXITY>
713

> <PUBCHEM_CACTVS_HBOND_ACCEPTOR>
10

> <PUBCHEM_CACTVS_HBOND_DONOR>
2

> <PUBCHEM_CACTVS_ROTATABLE_BOND>
8

> <PUBCHEM_CACTVS_SUBSKEYS>
AAADceB7uABgAAAAAAAAAAAAAAAAAWJAAAAwYAAAAAAAAEgB0AAAHgQYQAAACAyh0gMz34LABAquACVycHLSCJJhIhEciBh27IgfJyLksZ+nOCr13BXe6AfQYAwAAQQACAAAQAACCAAQAACAAAAAAAAAAA==

> <PUBCHEM_IUPAC_OPENEYE_NAME>
2-(1,3-benzodioxol-5-yloxy)-N-[4-[(5-ethyl-1,3,4-thiadiazol-2-yl)sulfamoyl]phenyl]acetamide

> <PUBCHEM_IUPAC_CAS_NAME>
2-(1,3-benzodioxol-5-yloxy)-N-[4-[(5-ethyl-1,3,4-thiadiazol-2-yl)sulfamoyl]phenyl]acetamide

> <PUBCHEM_IUPAC_NAME>
2-(1,3-benzodioxol-5-yloxy)-N-[4-[(5-ethyl-1,3,4-thiadiazol-2-yl)sulfamoyl]phenyl]acetamide

> <PUBCHEM_IUPAC_SYSTEMATIC_NAME>
2-(1,3-benzodioxol-5-yloxy)-N-[4-[(5-ethyl-1,3,4-thiadiazol-2-yl)sulfamoyl]phenyl]ethanamide

> <PUBCHEM_IUPAC_TRADITIONAL_NAME>
2-(1,3-benzodioxol-5-yloxy)-N-[4-[(5-ethyl-1,3,4-thiadiazol-2-yl)sulfamoyl]phenyl]acetamide

> <PUBCHEM_IUPAC_INCHI>
InChI=1S/C19H18N4O6S2/c1-2-18-21-22-19(30-18)23-31(25,26)14-6-3-12(4-7-14)20-17(24)10-27-13-5-8-15-16(9-13)29-11-28-15/h3-9H,2,10-11H2,1H3,(H,20,24)(H,22,23)

> <PUBCHEM_IUPAC_INCHIKEY>
WLTNFHIKIVVRCB-UHFFFAOYSA-N

> <PUBCHEM_XLOGP3>
2.4

> <PUBCHEM_EXACT_MASS>
462.066776

> <PUBCHEM_MOLECULAR_FORMULA>
C19H18N4O6S2

> <PUBCHEM_MOLECULAR_WEIGHT>
462.49942

> <PUBCHEM_OPENEYE_CAN_SMILES>
CCC1=NN=C(S1)NS(=O)(=O)C2=CC=C(C=C2)NC(=O)COC3=CC4=C(C=C3)OCO4

> <PUBCHEM_OPENEYE_ISO_SMILES>
CCC1=NN=C(S1)NS(=O)(=O)C2=CC=C(C=C2)NC(=O)COC3=CC4=C(C=C3)OCO4

> <PUBCHEM_CACTVS_TPSA>
165

> <PUBCHEM_MONOISOTOPIC_WEIGHT>
462.066776

> <PUBCHEM_TOTAL_CHARGE>
0

> <PUBCHEM_HEAVY_ATOM_COUNT>
31

> <PUBCHEM_ATOM_DEF_STEREO_COUNT>
0

> <PUBCHEM_ATOM_UDEF_STEREO_COUNT>
0

> <PUBCHEM_BOND_DEF_STEREO_COUNT>
0

> <PUBCHEM_BOND_UDEF_STEREO_COUNT>
0

> <PUBCHEM_ISOTOPIC_ATOM_COUNT>
0

> <PUBCHEM_COMPONENT_COUNT>
1

> <PUBCHEM_CACTVS_TAUTO_COUNT>
6

> <PUBCHEM_COORDINATE_TYPE>
1
5
255

> <PUBCHEM_BONDANNOTATIONS>
11  12  8
11  26  8
12  29  8
13  15  8
13  16  8
14  17  8
14  18  8
15  17  8
16  18  8
19  20  8
19  22  8
2  26  8
2  29  8
20  23  8
21  22  8
21  25  8
23  25  8

$$$$
50742532
  -OEChem-11301218012D

 25 25  0     1  0  0  0  0  0999 V2000
    5.4641    2.5000    0.0000 Br  0  0  0  0  0  0  0  0  0  0  0  0
    5.4641   -2.5000    0.0000 Cl  0  0  0  0  0  0  0  0  0  0  0  0
    5.4641    0.5000    0.0000 O   0  0  0  0  0  0  0  0  0  0  0  0
    3.7320    0.5000    0.0000 N   0  0  0  0  0  0  0  0  0  0  0  0
    3.7320   -0.5000    0.0000 C   0  0  0  0  0  0  0  0  0  0  0  0
    2.8660   -1.0000    0.0000 C   0  0  0  0  0  0  0  0  0  0  0  0
    4.5981    2.0000    0.0000 C   0  0  3  0  0  0  0  0  0  0  0  0
    4.5981   -1.0000    0.0000 C   0  0  0  0  0  0  0  0  0  0  0  0
    4.5981    1.0000    0.0000 C   0  0  0  0  0  0  0  0  0  0  0  0
    2.8660   -2.0000    0.0000 C   0  0  0  0  0  0  0  0  0  0  0  0
    2.0000   -0.5000    0.0000 C   0  0  0  0  0  0  0  0  0  0  0  0
    4.5981   -2.0000    0.0000 C   0  0  0  0  0  0  0  0  0  0  0  0
    3.7320   -2.5000    0.0000 C   0  0  0  0  0  0  0  0  0  0  0  0
    3.7320    2.5000    0.0000 C   0  0  0  0  0  0  0  0  0  0  0  0
    3.1951    0.8100    0.0000 H   0  0  0  0  0  0  0  0  0  0  0  0
    4.5981    2.6200    0.0000 H   0  0  0  0  0  0  0  0  0  0  0  0
    5.1350   -0.6900    0.0000 H   0  0  0  0  0  0  0  0  0  0  0  0
    2.3291   -2.3100    0.0000 H   0  0  0  0  0  0  0  0  0  0  0  0
    2.3100    0.0369    0.0000 H   0  0  0  0  0  0  0  0  0  0  0  0
    1.4631   -0.1900    0.0000 H   0  0  0  0  0  0  0  0  0  0  0  0
    1.6900   -1.0369    0.0000 H   0  0  0  0  0  0  0  0  0  0  0  0
    3.7320   -3.1200    0.0000 H   0  0  0  0  0  0  0  0  0  0  0  0
    4.0420    3.0369    0.0000 H   0  0  0  0  0  0  0  0  0  0  0  0
    3.1951    2.8100    0.0000 H   0  0  0  0  0  0  0  0  0  0  0  0
    3.4220    1.9631    0.0000 H   0  0  0  0  0  0  0  0  0  0  0  0
  1  7  1  0  0  0  0
  2 12  1  0  0  0  0
  3  9  2  0  0  0  0
  4  5  1  0  0  0  0
  4  9  1  0  0  0  0
  4 15  1  0  0  0  0
  5  6  2  0  0  0  0
  5  8  1  0  0  0  0
  6 10  1  0  0  0  0
  6 11  1  0  0  0  0
  7  9  1  0  0  0  0
  7 14  1  0  0  0  0
  7 16  1  0  0  0  0
  8 12  2  0  0  0  0
  8 17  1  0  0  0  0
 10 13  2  0  0  0  0
 10 18  1  0  0  0  0
 11 19  1  0  0  0  0
 11 20  1  0  0  0  0
 11 21  1  0  0  0  0
 12 13  1  0  0  0  0
 13 22  1  0  0  0  0
 14 23  1  0  0  0  0
 14 24  1  0  0  0  0
 14 25  1  0  0  0  0
M  END
> <PUBCHEM_COMPOUND_CID>
50742532

> <PUBCHEM_COMPOUND_CANONICALIZED>
1

> <PUBCHEM_CACTVS_COMPLEXITY>
212

> <PUBCHEM_CACTVS_HBOND_ACCEPTOR>
1

> <PUBCHEM_CACTVS_HBOND_DONOR>
1

> <PUBCHEM_CACTVS_ROTATABLE_BOND>
2

> <PUBCHEM_CACTVS_SUBSKEYS>
AAADccByIAAEEAAAAAAAAAAAAAAAAAAAAAAwAAAAAAAAAAABAAAAHgJQAAABzAqBmCAywILAAACIAiVSUACCAAAhBwAIiAEAZogoICLBk5GEIAhglADIyAcQgAAOBAAAAAICAAAIAAAABAQAAAAAAAAAAA==

> <PUBCHEM_IUPAC_OPENEYE_NAME>
2-bromo-N-(5-chloro-2-methyl-phenyl)propanamide

> <PUBCHEM_IUPAC_CAS_NAME>
2-bromo-N-(5-chloro-2-methylphenyl)propanamide

> <PUBCHEM_IUPAC_NAME>
2-bromo-N-(5-chloro-2-methylphenyl)propanamide

> <PUBCHEM_IUPAC_SYSTEMATIC_NAME>
2-bromanyl-N-(5-chloranyl-2-methyl-phenyl)propanamide

> <PUBCHEM_IUPAC_TRADITIONAL_NAME>
2-bromo-N-(5-chloro-2-methyl-phenyl)propionamide

> <PUBCHEM_IUPAC_INCHI>
InChI=1S/C10H11BrClNO/c1-6-3-4-8(12)5-9(6)13-10(14)7(2)11/h3-5,7H,1-2H3,(H,13,14)

> <PUBCHEM_IUPAC_INCHIKEY>
UKEYXKCDUNMFNC-UHFFFAOYSA-N

> <PUBCHEM_XLOGP3>
3

> <PUBCHEM_EXACT_MASS>
274.971254

> <PUBCHEM_MOLECULAR_FORMULA>
C10H11BrClNO

> <PUBCHEM_MOLECULAR_WEIGHT>
276.55744

> <PUBCHEM_OPENEYE_CAN_SMILES>
CC1=C(C=C(C=C1)Cl)NC(=O)C(C)Br

> <PUBCHEM_OPENEYE_ISO_SMILES>
CC1=C(C=C(C=C1)Cl)NC(=O)C(C)Br

> <PUBCHEM_CACTVS_TPSA>
29.1

> <PUBCHEM_MONOISOTOPIC_WEIGHT>
274.971254

> <PUBCHEM_TOTAL_CHARGE>
0

> <PUBCHEM_HEAVY_ATOM_COUNT>
14

> <PUBCHEM_ATOM_DEF_STEREO_COUNT>
0

> <PUBCHEM_ATOM_UDEF_STEREO_COUNT>
1

> <PUBCHEM_BOND_DEF_STEREO_COUNT>
0

> <PUBCHEM_BOND_UDEF_STEREO_COUNT>
0

> <PUBCHEM_ISOTOPIC_ATOM_COUNT>
0

> <PUBCHEM_COMPONENT_COUNT>
1

> <PUBCHEM_CACTVS_TAUTO_COUNT>
3

> <PUBCHEM_COORDINATE_TYPE>
1
5
255

> <PUBCHEM_BONDANNOTATIONS>
7  1  3
10  13  8
12  13  8
5  6  8
5  8  8
6  10  8
8  12  8

$$$$
50742536
  -OEChem-11301218012D

 28 28  0     1  0  0  0  0  0999 V2000
    5.4641    3.0000    0.0000 Br  0  0  0  0  0  0  0  0  0  0  0  0
    5.4641    1.0000    0.0000 O   0  0  0  0  0  0  0  0  0  0  0  0
    3.7320    1.0000    0.0000 N   0  0  0  0  0  0  0  0  0  0  0  0
    2.8660   -1.5000    0.0000 C   0  0  0  0  0  0  0  0  0  0  0  0
    2.0000   -2.0000    0.0000 C   0  0  0  0  0  0  0  0  0  0  0  0
    3.7320    0.0000    0.0000 C   0  0  0  0  0  0  0  0  0  0  0  0
    2.8660   -0.5000    0.0000 C   0  0  0  0  0  0  0  0  0  0  0  0
    3.7320   -2.0000    0.0000 C   0  0  0  0  0  0  0  0  0  0  0  0
    4.5981   -0.5000    0.0000 C   0  0  0  0  0  0  0  0  0  0  0  0
    4.5981   -1.5000    0.0000 C   0  0  0  0  0  0  0  0  0  0  0  0
    4.5981    2.5000    0.0000 C   0  0  3  0  0  0  0  0  0  0  0  0
    2.0000   -3.0000    0.0000 C   0  0  0  0  0  0  0  0  0  0  0  0
    4.5981    1.5000    0.0000 C   0  0  0  0  0  0  0  0  0  0  0  0
    3.7320    3.0000    0.0000 C   0  0  0  0  0  0  0  0  0  0  0  0
    1.7880   -1.4174    0.0000 H   0  0  0  0  0  0  0  0  0  0  0  0
    1.3894   -2.1077    0.0000 H   0  0  0  0  0  0  0  0  0  0  0  0
    2.3291   -0.1900    0.0000 H   0  0  0  0  0  0  0  0  0  0  0  0
    3.7320   -2.6200    0.0000 H   0  0  0  0  0  0  0  0  0  0  0  0
    5.1350   -0.1900    0.0000 H   0  0  0  0  0  0  0  0  0  0  0  0
    3.1951    1.3100    0.0000 H   0  0  0  0  0  0  0  0  0  0  0  0
    5.1350   -1.8100    0.0000 H   0  0  0  0  0  0  0  0  0  0  0  0
    4.5981    3.1200    0.0000 H   0  0  0  0  0  0  0  0  0  0  0  0
    1.3800   -3.0000    0.0000 H   0  0  0  0  0  0  0  0  0  0  0  0
    2.0000   -3.6200    0.0000 H   0  0  0  0  0  0  0  0  0  0  0  0
    2.6200   -3.0000    0.0000 H   0  0  0  0  0  0  0  0  0  0  0  0
    4.0420    3.5369    0.0000 H   0  0  0  0  0  0  0  0  0  0  0  0
    3.1951    3.3100    0.0000 H   0  0  0  0  0  0  0  0  0  0  0  0
    3.4220    2.4631    0.0000 H   0  0  0  0  0  0  0  0  0  0  0  0
  1 11  1  0  0  0  0
  2 13  2  0  0  0  0
  3  6  1  0  0  0  0
  3 13  1  0  0  0  0
  3 20  1  0  0  0  0
  4  5  1  0  0  0  0
  4  7  2  0  0  0  0
  4  8  1  0  0  0  0
  5 12  1  0  0  0  0
  5 15  1  0  0  0  0
  5 16  1  0  0  0  0
  6  7  1  0  0  0  0
  6  9  2  0  0  0  0
  7 17  1  0  0  0  0
  8 10  2  0  0  0  0
  8 18  1  0  0  0  0
  9 10  1  0  0  0  0
  9 19  1  0  0  0  0
 10 21  1  0  0  0  0
 11 13  1  0  0  0  0
 11 14  1  0  0  0  0
 11 22  1  0  0  0  0
 12 23  1  0  0  0  0
 12 24  1  0  0  0  0
 12 25  1  0  0  0  0
 14 26  1  0  0  0  0
 14 27  1  0  0  0  0
 14 28  1  0  0  0  0
M  END
> <PUBCHEM_COMPOUND_CID>
50742536

> <PUBCHEM_COMPOUND_CANONICALIZED>
1

> <PUBCHEM_CACTVS_COMPLEXITY>
196

> <PUBCHEM_CACTVS_HBOND_ACCEPTOR>
1

> <PUBCHEM_CACTVS_HBOND_DONOR>
1

> <PUBCHEM_CACTVS_ROTATABLE_BOND>
3

> <PUBCHEM_CACTVS_SUBSKEYS>
AAADccByIAAAEAAAAAAAAAAAAAAAAAAAAAAwAAAAAAAAAAABAAAAHgBQAAABzAiBmAAywILAAACIAiVSUACCAAAhAgAIiAEAZIgoICLAkZGEIAhglADIyAcQgIAOAAAAQAAAAAAAAACAAAAAAAAAAAAAAA==

> <PUBCHEM_IUPAC_OPENEYE_NAME>
2-bromo-N-(3-ethylphenyl)propanamide

> <PUBCHEM_IUPAC_CAS_NAME>
2-bromo-N-(3-ethylphenyl)propanamide

> <PUBCHEM_IUPAC_NAME>
2-bromo-N-(3-ethylphenyl)propanamide

> <PUBCHEM_IUPAC_SYSTEMATIC_NAME>
2-bromanyl-N-(3-ethylphenyl)propanamide

> <PUBCHEM_IUPAC_TRADITIONAL_NAME>
2-bromo-N-(3-ethylphenyl)propionamide

> <PUBCHEM_IUPAC_INCHI>
InChI=1S/C11H14BrNO/c1-3-9-5-4-6-10(7-9)13-11(14)8(2)12/h4-8H,3H2,1-2H3,(H,13,14)

> <PUBCHEM_IUPAC_INCHIKEY>
MFWVJRQCUZAPHM-UHFFFAOYSA-N

> <PUBCHEM_XLOGP3>
3.5

> <PUBCHEM_EXACT_MASS>
255.025876

> <PUBCHEM_MOLECULAR_FORMULA>
C11H14BrNO

> <PUBCHEM_MOLECULAR_WEIGHT>
256.13896

> <PUBCHEM_OPENEYE_CAN_SMILES>
CCC1=CC(=CC=C1)NC(=O)C(C)Br

> <PUBCHEM_OPENEYE_ISO_SMILES>
CCC1=CC(=CC=C1)NC(=O)C(C)Br

> <PUBCHEM_CACTVS_TPSA>
29.1

> <PUBCHEM_MONOISOTOPIC_WEIGHT>
255.025876

> <PUBCHEM_TOTAL_CHARGE>
0

> <PUBCHEM_HEAVY_ATOM_COUNT>
14

> <PUBCHEM_ATOM_DEF_STEREO_COUNT>
0

> <PUBCHEM_ATOM_UDEF_STEREO_COUNT>
1

> <PUBCHEM_BOND_DEF_STEREO_COUNT>
0

> <PUBCHEM_BOND_UDEF_STEREO_COUNT>
0

> <PUBCHEM_ISOTOPIC_ATOM_COUNT>
0

> <PUBCHEM_COMPONENT_COUNT>
1

> <PUBCHEM_CACTVS_TAUTO_COUNT>
3

> <PUBCHEM_COORDINATE_TYPE>
1
5
255

> <PUBCHEM_BONDANNOTATIONS>
11  1  3
4  7  8
4  8  8
6  7  8
6  9  8
8  10  8
9  10  8

$$$$
50743509
  -OEChem-11301218012D

 35 37  0     0  0  0  0  0  0999 V2000
    2.0000    2.6900    0.0000 O   0  0  0  0  0  0  0  0  0  0  0  0
    3.7320   -0.3100    0.0000 N   0  0  0  0  0  0  0  0  0  0  0  0
    2.8660    1.1900    0.0000 N   0  0  0  0  0  0  0  0  0  0  0  0
    3.7320    2.6900    0.0000 N   0  0  0  0  0  0  0  0  0  0  0  0
    3.7320   -2.3100    0.0000 C   0  0  0  0  0  0  0  0  0  0  0  0
    2.8660   -1.8100    0.0000 C   0  0  0  0  0  0  0  0  0  0  0  0
    4.5981   -1.8100    0.0000 C   0  0  0  0  0  0  0  0  0  0  0  0
    2.8660   -0.8100    0.0000 C   0  0  0  0  0  0  0  0  0  0  0  0
    4.5981   -0.8100    0.0000 C   0  0  0  0  0  0  0  0  0  0  0  0
    3.7320   -3.3100    0.0000 C   0  0  0  0  0  0  0  0  0  0  0  0
    3.7320    0.6900    0.0000 C   0  0  0  0  0  0  0  0  0  0  0  0
    4.5981    1.1900    0.0000 C   0  0  0  0  0  0  0  0  0  0  0  0
    4.5981    2.1900    0.0000 C   0  0  0  0  0  0  0  0  0  0  0  0
    5.4920    0.6553    0.0000 C   0  0  0  0  0  0  0  0  0  0  0  0
    2.8660    2.1900    0.0000 C   0  0  0  0  0  0  0  0  0  0  0  0
    5.4920    2.7247    0.0000 C   0  0  0  0  0  0  0  0  0  0  0  0
    6.3981    1.1692    0.0000 C   0  0  0  0  0  0  0  0  0  0  0  0
    6.3981    2.2108    0.0000 C   0  0  0  0  0  0  0  0  0  0  0  0
    4.2690   -2.6200    0.0000 H   0  0  0  0  0  0  0  0  0  0  0  0
    2.2554   -1.7023    0.0000 H   0  0  0  0  0  0  0  0  0  0  0  0
    2.6540   -2.3926    0.0000 H   0  0  0  0  0  0  0  0  0  0  0  0
    4.8101   -2.3926    0.0000 H   0  0  0  0  0  0  0  0  0  0  0  0
    5.2087   -1.7023    0.0000 H   0  0  0  0  0  0  0  0  0  0  0  0
    2.6540   -0.2274    0.0000 H   0  0  0  0  0  0  0  0  0  0  0  0
    2.2554   -0.9177    0.0000 H   0  0  0  0  0  0  0  0  0  0  0  0
    5.2087   -0.9177    0.0000 H   0  0  0  0  0  0  0  0  0  0  0  0
    4.8101   -0.2274    0.0000 H   0  0  0  0  0  0  0  0  0  0  0  0
    3.1120   -3.3100    0.0000 H   0  0  0  0  0  0  0  0  0  0  0  0
    3.7320   -3.9300    0.0000 H   0  0  0  0  0  0  0  0  0  0  0  0
    4.3520   -3.3100    0.0000 H   0  0  0  0  0  0  0  0  0  0  0  0
    5.4848    0.0354    0.0000 H   0  0  0  0  0  0  0  0  0  0  0  0
    3.7320    3.3100    0.0000 H   0  0  0  0  0  0  0  0  0  0  0  0
    5.4848    3.3446    0.0000 H   0  0  0  0  0  0  0  0  0  0  0  0
    6.9338    0.8571    0.0000 H   0  0  0  0  0  0  0  0  0  0  0  0
    6.9338    2.5229    0.0000 H   0  0  0  0  0  0  0  0  0  0  0  0
  1 15  2  0  0  0  0
  2  8  1  0  0  0  0
  2  9  1  0  0  0  0
  2 11  1  0  0  0  0
  3 11  2  0  0  0  0
  3 15  1  0  0  0  0
  4 13  1  0  0  0  0
  4 15  1  0  0  0  0
  4 32  1  0  0  0  0
  5  6  1  0  0  0  0
  5  7  1  0  0  0  0
  5 10  1  0  0  0  0
  5 19  1  0  0  0  0
  6  8  1  0  0  0  0
  6 20  1  0  0  0  0
  6 21  1  0  0  0  0
  7  9  1  0  0  0  0
  7 22  1  0  0  0  0
  7 23  1  0  0  0  0
  8 24  1  0  0  0  0
  8 25  1  0  0  0  0
  9 26  1  0  0  0  0
  9 27  1  0  0  0  0
 10 28  1  0  0  0  0
 10 29  1  0  0  0  0
 10 30  1  0  0  0  0
 11 12  1  0  0  0  0
 12 13  1  0  0  0  0
 12 14  2  0  0  0  0
 13 16  2  0  0  0  0
 14 17  1  0  0  0  0
 14 31  1  0  0  0  0
 16 18  1  0  0  0  0
 16 33  1  0  0  0  0
 17 18  2  0  0  0  0
 17 34  1  0  0  0  0
 18 35  1  0  0  0  0
M  END
> <PUBCHEM_COMPOUND_CID>
50743509

> <PUBCHEM_COMPOUND_CANONICALIZED>
1

> <PUBCHEM_CACTVS_COMPLEXITY>
358

> <PUBCHEM_CACTVS_HBOND_ACCEPTOR>
1

> <PUBCHEM_CACTVS_HBOND_DONOR>
1

> <PUBCHEM_CACTVS_ROTATABLE_BOND>
1

> <PUBCHEM_CACTVS_SUBSKEYS>
AAADceBzIAAAAAAAAAAAAAAAAAAAAAAAAAA8QIAAAAAAAACBAAAAHgAQAAAADQjBGAQzwIPAAACoAiZidACCAAEhAgAJiAAoZJiIIKLA2ZGEIAhglALIyCcQgAAOAAAAAAACAAAAAAAAAAQAAAAAAAAAAA==

> <PUBCHEM_IUPAC_OPENEYE_NAME>
4-(4-methyl-1-piperidyl)-1H-quinazolin-2-one

> <PUBCHEM_IUPAC_CAS_NAME>
4-(4-methyl-1-piperidinyl)-1H-quinazolin-2-one

> <PUBCHEM_IUPAC_NAME>
4-(4-methylpiperidin-1-yl)-1H-quinazolin-2-one

> <PUBCHEM_IUPAC_SYSTEMATIC_NAME>
4-(4-methylpiperidin-1-yl)-1H-quinazolin-2-one

> <PUBCHEM_IUPAC_TRADITIONAL_NAME>
4-(4-methylpiperidino)-1H-quinazolin-2-one

> <PUBCHEM_IUPAC_INCHI>
InChI=1S/C14H17N3O/c1-10-6-8-17(9-7-10)13-11-4-2-3-5-12(11)15-14(18)16-13/h2-5,10H,6-9H2,1H3,(H,15,16,18)

> <PUBCHEM_IUPAC_INCHIKEY>
ONHFZXDSVHPVLM-UHFFFAOYSA-N

> <PUBCHEM_XLOGP3>
2.5

> <PUBCHEM_EXACT_MASS>
243.137162

> <PUBCHEM_MOLECULAR_FORMULA>
C14H17N3O

> <PUBCHEM_MOLECULAR_WEIGHT>
243.30428

> <PUBCHEM_OPENEYE_CAN_SMILES>
CC1CCN(CC1)C2=NC(=O)NC3=CC=CC=C32

> <PUBCHEM_OPENEYE_ISO_SMILES>
CC1CCN(CC1)C2=NC(=O)NC3=CC=CC=C32

> <PUBCHEM_CACTVS_TPSA>
44.7

> <PUBCHEM_MONOISOTOPIC_WEIGHT>
243.137162

> <PUBCHEM_TOTAL_CHARGE>
0

> <PUBCHEM_HEAVY_ATOM_COUNT>
18

> <PUBCHEM_ATOM_DEF_STEREO_COUNT>
0

> <PUBCHEM_ATOM_UDEF_STEREO_COUNT>
0

> <PUBCHEM_BOND_DEF_STEREO_COUNT>
0

> <PUBCHEM_BOND_UDEF_STEREO_COUNT>
0

> <PUBCHEM_ISOTOPIC_ATOM_COUNT>
0

> <PUBCHEM_COMPONENT_COUNT>
1

> <PUBCHEM_CACTVS_TAUTO_COUNT>
4

> <PUBCHEM_COORDINATE_TYPE>
1
5
255

> <PUBCHEM_BONDANNOTATIONS>
11  12  8
12  13  8
12  14  8
13  16  8
14  17  8
16  18  8
17  18  8
3  11  8
3  15  8
4  13  8
4  15  8

$$$$
