43775223
  -OEChem-10201218342D

 30 31  0     0  0  0  0  0  0999 V2000
    2.0000   -0.9830    0.0000 Cl  0  0  0  0  0  0  0  0  0  0  0  0
    5.4641   -0.9830    0.0000 Cl  0  0  0  0  0  0  0  0  0  0  0  0
    2.0000   -2.9830    0.0000 Cl  0  0  0  0  0  0  0  0  0  0  0  0
    4.5981    0.5170    0.0000 N   0  0  0  0  0  0  0  0  0  0  0  0
    5.4641    2.0170    0.0000 C   0  0  0  0  0  0  0  0  0  0  0  0
    6.4300    1.7582    0.0000 C   0  0  0  0  0  0  0  0  0  0  0  0
    5.7229    2.9830    0.0000 C   0  0  0  0  0  0  0  0  0  0  0  0
    6.6888    2.7241    0.0000 C   0  0  0  0  0  0  0  0  0  0  0  0
    4.5981    1.5170    0.0000 C   0  0  0  0  0  0  0  0  0  0  0  0
    3.7320    0.0170    0.0000 C   0  0  0  0  0  0  0  0  0  0  0  0
    3.7320   -0.9830    0.0000 C   0  0  0  0  0  0  0  0  0  0  0  0
    2.8660   -1.4830    0.0000 C   0  0  0  0  0  0  0  0  0  0  0  0
    4.5981   -1.4830    0.0000 C   0  0  0  0  0  0  0  0  0  0  0  0
    2.8660   -2.4830    0.0000 C   0  0  0  0  0  0  0  0  0  0  0  0
    4.5981   -2.4830    0.0000 C   0  0  0  0  0  0  0  0  0  0  0  0
    3.7320   -2.9830    0.0000 C   0  0  0  0  0  0  0  0  0  0  0  0
    4.9722    2.3945    0.0000 H   0  0  0  0  0  0  0  0  0  0  0  0
    6.2696    1.1593    0.0000 H   0  0  0  0  0  0  0  0  0  0  0  0
    7.0289    1.5978    0.0000 H   0  0  0  0  0  0  0  0  0  0  0  0
    5.8834    3.5818    0.0000 H   0  0  0  0  0  0  0  0  0  0  0  0
    5.1241    3.1434    0.0000 H   0  0  0  0  0  0  0  0  0  0  0  0
    7.2877    2.5637    0.0000 H   0  0  0  0  0  0  0  0  0  0  0  0
    6.8493    3.3230    0.0000 H   0  0  0  0  0  0  0  0  0  0  0  0
    4.3860    2.0996    0.0000 H   0  0  0  0  0  0  0  0  0  0  0  0
    3.9875    1.4094    0.0000 H   0  0  0  0  0  0  0  0  0  0  0  0
    5.1350    0.2070    0.0000 H   0  0  0  0  0  0  0  0  0  0  0  0
    3.5200    0.5996    0.0000 H   0  0  0  0  0  0  0  0  0  0  0  0
    3.1215   -0.0906    0.0000 H   0  0  0  0  0  0  0  0  0  0  0  0
    5.1350   -2.7930    0.0000 H   0  0  0  0  0  0  0  0  0  0  0  0
    3.7320   -3.6030    0.0000 H   0  0  0  0  0  0  0  0  0  0  0  0
  1 12  1  0  0  0  0
  2 13  1  0  0  0  0
  3 14  1  0  0  0  0
  4  9  1  0  0  0  0
  4 10  1  0  0  0  0
  4 26  1  0  0  0  0
  5  6  1  0  0  0  0
  5  7  1  0  0  0  0
  5  9  1  0  0  0  0
  5 17  1  0  0  0  0
  6  8  1  0  0  0  0
  6 18  1  0  0  0  0
  6 19  1  0  0  0  0
  7  8  1  0  0  0  0
  7 20  1  0  0  0  0
  7 21  1  0  0  0  0
  8 22  1  0  0  0  0
  8 23  1  0  0  0  0
  9 24  1  0  0  0  0
  9 25  1  0  0  0  0
 10 11  1  0  0  0  0
 10 27  1  0  0  0  0
 10 28  1  0  0  0  0
 11 12  1  0  0  0  0
 11 13  2  0  0  0  0
 12 14  2  0  0  0  0
 13 15  1  0  0  0  0
 14 16  1  0  0  0  0
 15 16  2  0  0  0  0
 15 29  1  0  0  0  0
 16 30  1  0  0  0  0
M  END
> <PUBCHEM_COMPOUND_CID>
43775223

> <PUBCHEM_COMPOUND_CANONICALIZED>
1

> <PUBCHEM_CACTVS_COMPLEXITY>
220

> <PUBCHEM_CACTVS_HBOND_ACCEPTOR>
1

> <PUBCHEM_CACTVS_HBOND_DONOR>
1

> <PUBCHEM_CACTVS_ROTATABLE_BOND>
4

> <PUBCHEM_CACTVS_SUBSKEYS>
AAADccByAAAGAAAAAAAAAAAAAABgAAAAAAAwAAAAAAAAAAABAAAAHAIQAAAADQLBGCQwAILAAACAAiBCAACCAAAgBQAIisAIBogIICKBkhGEIAhgkACIiAcQgAAOAAAQIACBAAQAACBAAQIACAAAAAAAAA==

> <PUBCHEM_IUPAC_OPENEYE_NAME>
1-cyclobutyl-N-[(2,3,6-trichlorophenyl)methyl]methanamine

> <PUBCHEM_IUPAC_CAS_NAME>
1-cyclobutyl-N-[(2,3,6-trichlorophenyl)methyl]methanamine

> <PUBCHEM_IUPAC_NAME>
1-cyclobutyl-N-[(2,3,6-trichlorophenyl)methyl]methanamine

> <PUBCHEM_IUPAC_SYSTEMATIC_NAME>
1-cyclobutyl-N-[[2,3,6-tris(chloranyl)phenyl]methyl]methanamine

> <PUBCHEM_IUPAC_TRADITIONAL_NAME>
cyclobutylmethyl-(2,3,6-trichlorobenzyl)amine

> <PUBCHEM_IUPAC_INCHI>
InChI=1S/C12H14Cl3N/c13-10-4-5-11(14)12(15)9(10)7-16-6-8-2-1-3-8/h4-5,8,16H,1-3,6-7H2

> <PUBCHEM_IUPAC_INCHIKEY>
IBEVWDPQJMYVNL-UHFFFAOYSA-N

> <PUBCHEM_XLOGP3>
4.4

> <PUBCHEM_EXACT_MASS>
277.019182

> <PUBCHEM_MOLECULAR_FORMULA>
C12H14Cl3N

> <PUBCHEM_MOLECULAR_WEIGHT>
278.60526

> <PUBCHEM_OPENEYE_CAN_SMILES>
C1CC(C1)CNCC2=C(C=CC(=C2Cl)Cl)Cl

> <PUBCHEM_OPENEYE_ISO_SMILES>
C1CC(C1)CNCC2=C(C=CC(=C2Cl)Cl)Cl

> <PUBCHEM_CACTVS_TPSA>
12

> <PUBCHEM_MONOISOTOPIC_WEIGHT>
277.019182

> <PUBCHEM_TOTAL_CHARGE>
0

> <PUBCHEM_HEAVY_ATOM_COUNT>
16

> <PUBCHEM_ATOM_DEF_STEREO_COUNT>
0

> <PUBCHEM_ATOM_UDEF_STEREO_COUNT>
0

> <PUBCHEM_BOND_DEF_STEREO_COUNT>
0

> <PUBCHEM_BOND_UDEF_STEREO_COUNT>
0

> <PUBCHEM_ISOTOPIC_ATOM_COUNT>
0

> <PUBCHEM_COMPONENT_COUNT>
1

> <PUBCHEM_CACTVS_TAUTO_COUNT>
1

> <PUBCHEM_COORDINATE_TYPE>
1
5
255

> <PUBCHEM_BONDANNOTATIONS>
11  12  8
11  13  8
12  14  8
13  15  8
14  16  8
15  16  8

$$$$
43775224
  -OEChem-10201218342D

 37 39  0     1  0  0  0  0  0999 V2000
    4.9568   -0.5344    0.0000 N   0  0  0  0  0  0  0  0  0  0  0  0
    3.2247   -0.5344    0.0000 C   0  0  0  0  0  0  0  0  0  0  0  0
    2.2588   -0.2755    0.0000 C   0  0  0  0  0  0  0  0  0  0  0  0
    2.9659   -1.5003    0.0000 C   0  0  0  0  0  0  0  0  0  0  0  0
    2.0000   -1.2415    0.0000 C   0  0  0  0  0  0  0  0  0  0  0  0
    4.0908   -0.0344    0.0000 C   0  0  0  0  0  0  0  0  0  0  0  0
    5.8228   -0.0344    0.0000 C   0  0  3  0  0  0  0  0  0  0  0  0
    5.8228    0.9656    0.0000 C   0  0  0  0  0  0  0  0  0  0  0  0
    6.6888   -0.5344    0.0000 C   0  0  0  0  0  0  0  0  0  0  0  0
    6.6888    1.4656    0.0000 C   0  0  0  0  0  0  0  0  0  0  0  0
    7.5549   -0.0344    0.0000 C   0  0  0  0  0  0  0  0  0  0  0  0
    7.5549    0.9656    0.0000 C   0  0  0  0  0  0  0  0  0  0  0  0
    8.4488   -0.5690    0.0000 C   0  0  0  0  0  0  0  0  0  0  0  0
    8.4488    1.5003    0.0000 C   0  0  0  0  0  0  0  0  0  0  0  0
    9.3549   -0.0552    0.0000 C   0  0  0  0  0  0  0  0  0  0  0  0
    9.3549    0.9864    0.0000 C   0  0  0  0  0  0  0  0  0  0  0  0
    3.1438    0.0803    0.0000 H   0  0  0  0  0  0  0  0  0  0  0  0
    2.4193    0.3233    0.0000 H   0  0  0  0  0  0  0  0  0  0  0  0
    1.6600   -0.1151    0.0000 H   0  0  0  0  0  0  0  0  0  0  0  0
    2.8055   -2.0992    0.0000 H   0  0  0  0  0  0  0  0  0  0  0  0
    3.5648   -1.6608    0.0000 H   0  0  0  0  0  0  0  0  0  0  0  0
    1.4011   -1.0810    0.0000 H   0  0  0  0  0  0  0  0  0  0  0  0
    1.8395   -1.8404    0.0000 H   0  0  0  0  0  0  0  0  0  0  0  0
    4.4893    0.4406    0.0000 H   0  0  0  0  0  0  0  0  0  0  0  0
    3.6922    0.4406    0.0000 H   0  0  0  0  0  0  0  0  0  0  0  0
    5.8228   -0.6544    0.0000 H   0  0  0  0  0  0  0  0  0  0  0  0
    4.9568   -1.1544    0.0000 H   0  0  0  0  0  0  0  0  0  0  0  0
    5.6108    1.5482    0.0000 H   0  0  0  0  0  0  0  0  0  0  0  0
    5.2122    0.8580    0.0000 H   0  0  0  0  0  0  0  0  0  0  0  0
    6.2903   -1.0093    0.0000 H   0  0  0  0  0  0  0  0  0  0  0  0
    7.0874   -1.0093    0.0000 H   0  0  0  0  0  0  0  0  0  0  0  0
    7.0874    1.9406    0.0000 H   0  0  0  0  0  0  0  0  0  0  0  0
    6.2903    1.9406    0.0000 H   0  0  0  0  0  0  0  0  0  0  0  0
    8.4416   -1.1890    0.0000 H   0  0  0  0  0  0  0  0  0  0  0  0
    8.4416    2.1202    0.0000 H   0  0  0  0  0  0  0  0  0  0  0  0
    9.8906   -0.3672    0.0000 H   0  0  0  0  0  0  0  0  0  0  0  0
    9.8906    1.2985    0.0000 H   0  0  0  0  0  0  0  0  0  0  0  0
  1  6  1  0  0  0  0
  1  7  1  0  0  0  0
  1 27  1  0  0  0  0
  2  3  1  0  0  0  0
  2  4  1  0  0  0  0
  2  6  1  0  0  0  0
  2 17  1  0  0  0  0
  3  5  1  0  0  0  0
  3 18  1  0  0  0  0
  3 19  1  0  0  0  0
  4  5  1  0  0  0  0
  4 20  1  0  0  0  0
  4 21  1  0  0  0  0
  5 22  1  0  0  0  0
  5 23  1  0  0  0  0
  6 24  1  0  0  0  0
  6 25  1  0  0  0  0
  7  8  1  0  0  0  0
  7  9  1  0  0  0  0
  7 26  1  0  0  0  0
  8 10  1  0  0  0  0
  8 28  1  0  0  0  0
  8 29  1  0  0  0  0
  9 11  1  0  0  0  0
  9 30  1  0  0  0  0
  9 31  1  0  0  0  0
 10 12  1  0  0  0  0
 10 32  1  0  0  0  0
 10 33  1  0  0  0  0
 11 12  1  0  0  0  0
 11 13  2  0  0  0  0
 12 14  2  0  0  0  0
 13 15  1  0  0  0  0
 13 34  1  0  0  0  0
 14 16  1  0  0  0  0
 14 35  1  0  0  0  0
 15 16  2  0  0  0  0
 15 36  1  0  0  0  0
 16 37  1  0  0  0  0
M  END
> <PUBCHEM_COMPOUND_CID>
43775224

> <PUBCHEM_COMPOUND_CANONICALIZED>
1

> <PUBCHEM_CACTVS_COMPLEXITY>
222

> <PUBCHEM_CACTVS_HBOND_ACCEPTOR>
1

> <PUBCHEM_CACTVS_HBOND_DONOR>
1

> <PUBCHEM_CACTVS_ROTATABLE_BOND>
3

> <PUBCHEM_CACTVS_SUBSKEYS>
AAADceByAAAAAAAAAAAAAAAAAABgAAAAAAAwYAAAAAAAAADBAAAAHAAQAAAADSjBGAQwAILAAACAAiBCAAACAAAgAAAIiIAIAIgIICKAkRGEIAAgkACIiAcQgIAOgAAAAAAQAAAQAACAACAAAAAAAAAAAA==

> <PUBCHEM_IUPAC_OPENEYE_NAME>
N-(cyclobutylmethyl)tetralin-2-amine

> <PUBCHEM_IUPAC_CAS_NAME>
N-(cyclobutylmethyl)-1,2,3,4-tetrahydronaphthalen-2-amine

> <PUBCHEM_IUPAC_NAME>
N-(cyclobutylmethyl)-1,2,3,4-tetrahydronaphthalen-2-amine

> <PUBCHEM_IUPAC_SYSTEMATIC_NAME>
N-(cyclobutylmethyl)-1,2,3,4-tetrahydronaphthalen-2-amine

> <PUBCHEM_IUPAC_TRADITIONAL_NAME>
cyclobutylmethyl(tetralin-2-yl)amine

> <PUBCHEM_IUPAC_INCHI>
InChI=1S/C15H21N/c1-2-7-14-10-15(9-8-13(14)6-1)16-11-12-4-3-5-12/h1-2,6-7,12,15-16H,3-5,8-11H2

> <PUBCHEM_IUPAC_INCHIKEY>
KAHGXODLRPCOGJ-UHFFFAOYSA-N

> <PUBCHEM_XLOGP3>
3.7

> <PUBCHEM_EXACT_MASS>
215.1674

> <PUBCHEM_MOLECULAR_FORMULA>
C15H21N

> <PUBCHEM_MOLECULAR_WEIGHT>
215.33394

> <PUBCHEM_OPENEYE_CAN_SMILES>
C1CC(C1)CNC2CCC3=CC=CC=C3C2

> <PUBCHEM_OPENEYE_ISO_SMILES>
C1CC(C1)CNC2CCC3=CC=CC=C3C2

> <PUBCHEM_CACTVS_TPSA>
12

> <PUBCHEM_MONOISOTOPIC_WEIGHT>
215.1674

> <PUBCHEM_TOTAL_CHARGE>
0

> <PUBCHEM_HEAVY_ATOM_COUNT>
16

> <PUBCHEM_ATOM_DEF_STEREO_COUNT>
0

> <PUBCHEM_ATOM_UDEF_STEREO_COUNT>
1

> <PUBCHEM_BOND_DEF_STEREO_COUNT>
0

> <PUBCHEM_BOND_UDEF_STEREO_COUNT>
0

> <PUBCHEM_ISOTOPIC_ATOM_COUNT>
0

> <PUBCHEM_COMPONENT_COUNT>
1

> <PUBCHEM_CACTVS_TAUTO_COUNT>
1

> <PUBCHEM_COORDINATE_TYPE>
1
5
255

> <PUBCHEM_BONDANNOTATIONS>
7  1  3
11  12  8
11  13  8
12  14  8
13  15  8
14  16  8
15  16  8

$$$$
43775738
  -OEChem-10201218342D

 42 43  0     1  0  0  0  0  0999 V2000
    5.4641   -0.7073    0.0000 N   0  0  0  0  0  0  0  0  0  0  0  0
    6.3301   -0.2073    0.0000 C   0  0  3  0  0  0  0  0  0  0  0  0
    6.3301    0.7927    0.0000 C   0  0  0  0  0  0  0  0  0  0  0  0
    7.1962   -0.7073    0.0000 C   0  0  0  0  0  0  0  0  0  0  0  0
    4.5981   -0.2073    0.0000 C   0  0  3  0  0  0  0  0  0  0  0  0
    7.1962    1.2927    0.0000 C   0  0  0  0  0  0  0  0  0  0  0  0
    8.0622   -0.2073    0.0000 C   0  0  0  0  0  0  0  0  0  0  0  0
    3.7320   -0.7073    0.0000 C   0  0  0  0  0  0  0  0  0  0  0  0
    8.0622    0.7927    0.0000 C   0  0  0  0  0  0  0  0  0  0  0  0
    2.8660   -0.2073    0.0000 C   0  0  0  0  0  0  0  0  0  0  0  0
    4.5981    0.7927    0.0000 C   0  0  0  0  0  0  0  0  0  0  0  0
    8.9561   -0.7420    0.0000 C   0  0  0  0  0  0  0  0  0  0  0  0
    8.9561    1.3273    0.0000 C   0  0  0  0  0  0  0  0  0  0  0  0
    2.0000   -0.7073    0.0000 C   0  0  0  0  0  0  0  0  0  0  0  0
    2.8660    0.7927    0.0000 C   0  0  0  0  0  0  0  0  0  0  0  0
    9.8622   -0.2281    0.0000 C   0  0  0  0  0  0  0  0  0  0  0  0
    9.8622    0.8135    0.0000 C   0  0  0  0  0  0  0  0  0  0  0  0
    5.7932    0.1027    0.0000 H   0  0  0  0  0  0  0  0  0  0  0  0
    6.1181    1.3753    0.0000 H   0  0  0  0  0  0  0  0  0  0  0  0
    5.7196    0.6850    0.0000 H   0  0  0  0  0  0  0  0  0  0  0  0
    6.7976   -1.1823    0.0000 H   0  0  0  0  0  0  0  0  0  0  0  0
    7.5947   -1.1823    0.0000 H   0  0  0  0  0  0  0  0  0  0  0  0
    4.5981   -0.8273    0.0000 H   0  0  0  0  0  0  0  0  0  0  0  0
    5.4641   -1.3273    0.0000 H   0  0  0  0  0  0  0  0  0  0  0  0
    7.5947    1.7676    0.0000 H   0  0  0  0  0  0  0  0  0  0  0  0
    6.7976    1.7676    0.0000 H   0  0  0  0  0  0  0  0  0  0  0  0
    3.3335   -1.1823    0.0000 H   0  0  0  0  0  0  0  0  0  0  0  0
    4.1306   -1.1823    0.0000 H   0  0  0  0  0  0  0  0  0  0  0  0
    2.8660   -0.8273    0.0000 H   0  0  0  0  0  0  0  0  0  0  0  0
    5.2181    0.7927    0.0000 H   0  0  0  0  0  0  0  0  0  0  0  0
    4.5981    1.4127    0.0000 H   0  0  0  0  0  0  0  0  0  0  0  0
    3.9781    0.7927    0.0000 H   0  0  0  0  0  0  0  0  0  0  0  0
    8.9490   -1.3620    0.0000 H   0  0  0  0  0  0  0  0  0  0  0  0
    8.9490    1.9473    0.0000 H   0  0  0  0  0  0  0  0  0  0  0  0
    1.6900   -0.1704    0.0000 H   0  0  0  0  0  0  0  0  0  0  0  0
    3.4860    0.7927    0.0000 H   0  0  0  0  0  0  0  0  0  0  0  0
    2.8660    1.4127    0.0000 H   0  0  0  0  0  0  0  0  0  0  0  0
    2.2460    0.7927    0.0000 H   0  0  0  0  0  0  0  0  0  0  0  0
    1.4631   -1.0173    0.0000 H   0  0  0  0  0  0  0  0  0  0  0  0
    2.3100   -1.2443    0.0000 H   0  0  0  0  0  0  0  0  0  0  0  0
   10.3979   -0.5402    0.0000 H   0  0  0  0  0  0  0  0  0  0  0  0
   10.3979    1.1256    0.0000 H   0  0  0  0  0  0  0  0  0  0  0  0
  1  2  1  0  0  0  0
  1  5  1  0  0  0  0
  1 24  1  0  0  0  0
  2  3  1  0  0  0  0
  2  4  1  0  0  0  0
  2 18  1  0  0  0  0
  3  6  1  0  0  0  0
  3 19  1  0  0  0  0
  3 20  1  0  0  0  0
  4  7  1  0  0  0  0
  4 21  1  0  0  0  0
  4 22  1  0  0  0  0
  5  8  1  0  0  0  0
  5 11  1  0  0  0  0
  5 23  1  0  0  0  0
  6  9  1  0  0  0  0
  6 25  1  0  0  0  0
  6 26  1  0  0  0  0
  7  9  1  0  0  0  0
  7 12  2  0  0  0  0
  8 10  1  0  0  0  0
  8 27  1  0  0  0  0
  8 28  1  0  0  0  0
  9 13  2  0  0  0  0
 10 14  1  0  0  0  0
 10 15  1  0  0  0  0
 10 29  1  0  0  0  0
 11 30  1  0  0  0  0
 11 31  1  0  0  0  0
 11 32  1  0  0  0  0
 12 16  1  0  0  0  0
 12 33  1  0  0  0  0
 13 17  1  0  0  0  0
 13 34  1  0  0  0  0
 14 35  1  0  0  0  0
 14 39  1  0  0  0  0
 14 40  1  0  0  0  0
 15 36  1  0  0  0  0
 15 37  1  0  0  0  0
 15 38  1  0  0  0  0
 16 17  2  0  0  0  0
 16 41  1  0  0  0  0
 17 42  1  0  0  0  0
M  END
> <PUBCHEM_COMPOUND_CID>
43775738

> <PUBCHEM_COMPOUND_CANONICALIZED>
1

> <PUBCHEM_CACTVS_COMPLEXITY>
224

> <PUBCHEM_CACTVS_HBOND_ACCEPTOR>
1

> <PUBCHEM_CACTVS_HBOND_DONOR>
1

> <PUBCHEM_CACTVS_ROTATABLE_BOND>
4

> <PUBCHEM_CACTVS_SUBSKEYS>
AAADceB6AAAAAAAAAAAAAAAAAAAAAAAAAAAwYAAAAAAAAADBAAAAHAAQAAAADSjBGAQyAILAAACAAiBCAAACAAAgAAAIiIAIAIgIICKAkRGEIAAgkACIiAcQgIAOgAAAAAAQAAAQAACAACAAAAAAAAAAAA==

> <PUBCHEM_IUPAC_OPENEYE_NAME>
N-(1,3-dimethylbutyl)tetralin-2-amine

> <PUBCHEM_IUPAC_CAS_NAME>
N-(4-methylpentan-2-yl)-1,2,3,4-tetrahydronaphthalen-2-amine

> <PUBCHEM_IUPAC_NAME>
N-(4-methylpentan-2-yl)-1,2,3,4-tetrahydronaphthalen-2-amine

> <PUBCHEM_IUPAC_SYSTEMATIC_NAME>
N-(4-methylpentan-2-yl)-1,2,3,4-tetrahydronaphthalen-2-amine

> <PUBCHEM_IUPAC_TRADITIONAL_NAME>
1,3-dimethylbutyl(tetralin-2-yl)amine

> <PUBCHEM_IUPAC_INCHI>
InChI=1S/C16H25N/c1-12(2)10-13(3)17-16-9-8-14-6-4-5-7-15(14)11-16/h4-7,12-13,16-17H,8-11H2,1-3H3

> <PUBCHEM_IUPAC_INCHIKEY>
SCPYKWZWQLUWAJ-UHFFFAOYSA-N

> <PUBCHEM_XLOGP3>
4.5

> <PUBCHEM_EXACT_MASS>
231.1987

> <PUBCHEM_MOLECULAR_FORMULA>
C16H25N

> <PUBCHEM_MOLECULAR_WEIGHT>
231.3764

> <PUBCHEM_OPENEYE_CAN_SMILES>
CC(C)CC(C)NC1CCC2=CC=CC=C2C1

> <PUBCHEM_OPENEYE_ISO_SMILES>
CC(C)CC(C)NC1CCC2=CC=CC=C2C1

> <PUBCHEM_CACTVS_TPSA>
12

> <PUBCHEM_MONOISOTOPIC_WEIGHT>
231.1987

> <PUBCHEM_TOTAL_CHARGE>
0

> <PUBCHEM_HEAVY_ATOM_COUNT>
17

> <PUBCHEM_ATOM_DEF_STEREO_COUNT>
0

> <PUBCHEM_ATOM_UDEF_STEREO_COUNT>
2

> <PUBCHEM_BOND_DEF_STEREO_COUNT>
0

> <PUBCHEM_BOND_UDEF_STEREO_COUNT>
0

> <PUBCHEM_ISOTOPIC_ATOM_COUNT>
0

> <PUBCHEM_COMPONENT_COUNT>
1

> <PUBCHEM_CACTVS_TAUTO_COUNT>
1

> <PUBCHEM_COORDINATE_TYPE>
1
5
255

> <PUBCHEM_BONDANNOTATIONS>
2  1  3
12  16  8
13  17  8
16  17  8
5  11  3
7  12  8
7  9  8
9  13  8

$$$$
