26413368
  -OEChem-11301217402D

 51 53  0     0  0  0  0  0  0999 V2000
    7.9245    0.1595    0.0000 O   0  0  0  0  0  0  0  0  0  0  0  0
    7.5673    1.8543    0.0000 N   0  0  0  0  0  0  0  0  0  0  0  0
    4.6783   -3.0191    0.0000 N   0  0  0  0  0  0  0  0  0  0  0  0
    8.5458    2.0605    0.0000 C   0  0  0  0  0  0  0  0  0  0  0  0
    8.7297    3.0435    0.0000 C   0  0  0  0  0  0  0  0  0  0  0  0
    9.1108    1.2354    0.0000 C   0  0  0  0  0  0  0  0  0  0  0  0
    9.5548    3.6085    0.0000 C   0  0  0  0  0  0  0  0  0  0  0  0
   10.0937    1.0515    0.0000 C   0  0  0  0  0  0  0  0  0  0  0  0
   10.5378    3.4245    0.0000 C   0  0  0  0  0  0  0  0  0  0  0  0
   10.9188    1.6165    0.0000 C   0  0  0  0  0  0  0  0  0  0  0  0
   11.1027    2.5994    0.0000 C   0  0  0  0  0  0  0  0  0  0  0  0
    7.2566    0.9038    0.0000 C   0  0  0  0  0  0  0  0  0  0  0  0
    6.2781    0.6976    0.0000 C   0  0  0  0  0  0  0  0  0  0  0  0
    5.9674   -0.2529    0.0000 C   0  0  0  0  0  0  0  0  0  0  0  0
    4.9889   -0.4592    0.0000 C   0  0  0  0  0  0  0  0  0  0  0  0
    4.6783   -1.4097    0.0000 C   0  0  0  0  0  0  0  0  0  0  0  0
    3.7321   -1.7144    0.0000 C   0  0  0  0  0  0  0  0  0  0  0  0
    3.7321   -2.7144    0.0000 C   0  0  0  0  0  0  0  0  0  0  0  0
    5.2619   -2.2144    0.0000 C   0  0  0  0  0  0  0  0  0  0  0  0
    2.8660   -1.2144    0.0000 C   0  0  0  0  0  0  0  0  0  0  0  0
    2.8660   -3.2144    0.0000 C   0  0  0  0  0  0  0  0  0  0  0  0
    2.0000   -1.7144    0.0000 C   0  0  0  0  0  0  0  0  0  0  0  0
    2.0000   -2.7144    0.0000 C   0  0  0  0  0  0  0  0  0  0  0  0
    8.3150    1.4851    0.0000 H   0  0  0  0  0  0  0  0  0  0  0  0
    8.5238    3.6283    0.0000 H   0  0  0  0  0  0  0  0  0  0  0  0
    8.1115    2.9959    0.0000 H   0  0  0  0  0  0  0  0  0  0  0  0
    8.5260    1.0295    0.0000 H   0  0  0  0  0  0  0  0  0  0  0  0
    9.1583    0.6173    0.0000 H   0  0  0  0  0  0  0  0  0  0  0  0
    9.8227    4.1676    0.0000 H   0  0  0  0  0  0  0  0  0  0  0  0
    9.0841    4.0119    0.0000 H   0  0  0  0  0  0  0  0  0  0  0  0
    9.8258    0.4924    0.0000 H   0  0  0  0  0  0  0  0  0  0  0  0
   10.5644    0.6480    0.0000 H   0  0  0  0  0  0  0  0  0  0  0  0
   11.1226    3.6305    0.0000 H   0  0  0  0  0  0  0  0  0  0  0  0
   10.4902    4.0427    0.0000 H   0  0  0  0  0  0  0  0  0  0  0  0
   11.1247    1.0317    0.0000 H   0  0  0  0  0  0  0  0  0  0  0  0
   11.5370    1.6641    0.0000 H   0  0  0  0  0  0  0  0  0  0  0  0
   11.6619    2.3315    0.0000 H   0  0  0  0  0  0  0  0  0  0  0  0
   11.5062    3.0702    0.0000 H   0  0  0  0  0  0  0  0  0  0  0  0
    7.1532    2.3158    0.0000 H   0  0  0  0  0  0  0  0  0  0  0  0
    6.2575    1.3172    0.0000 H   0  0  0  0  0  0  0  0  0  0  0  0
    5.6643    0.7849    0.0000 H   0  0  0  0  0  0  0  0  0  0  0  0
    5.9880   -0.8726    0.0000 H   0  0  0  0  0  0  0  0  0  0  0  0
    6.5813   -0.3403    0.0000 H   0  0  0  0  0  0  0  0  0  0  0  0
    4.9684    0.1605    0.0000 H   0  0  0  0  0  0  0  0  0  0  0  0
    4.3751   -0.3718    0.0000 H   0  0  0  0  0  0  0  0  0  0  0  0
    5.8819   -2.2144    0.0000 H   0  0  0  0  0  0  0  0  0  0  0  0
    4.8709   -3.6085    0.0000 H   0  0  0  0  0  0  0  0  0  0  0  0
    2.8660   -0.5944    0.0000 H   0  0  0  0  0  0  0  0  0  0  0  0
    2.8660   -3.8344    0.0000 H   0  0  0  0  0  0  0  0  0  0  0  0
    1.4631   -1.4044    0.0000 H   0  0  0  0  0  0  0  0  0  0  0  0
    1.4631   -3.0244    0.0000 H   0  0  0  0  0  0  0  0  0  0  0  0
  1 12  2  0  0  0  0
  2  4  1  0  0  0  0
  2 12  1  0  0  0  0
  2 39  1  0  0  0  0
  3 18  1  0  0  0  0
  3 19  1  0  0  0  0
  3 47  1  0  0  0  0
  4  5  1  0  0  0  0
  4  6  1  0  0  0  0
  4 24  1  0  0  0  0
  5  7  1  0  0  0  0
  5 25  1  0  0  0  0
  5 26  1  0  0  0  0
  6  8  1  0  0  0  0
  6 27  1  0  0  0  0
  6 28  1  0  0  0  0
  7  9  1  0  0  0  0
  7 29  1  0  0  0  0
  7 30  1  0  0  0  0
  8 10  1  0  0  0  0
  8 31  1  0  0  0  0
  8 32  1  0  0  0  0
  9 11  1  0  0  0  0
  9 33  1  0  0  0  0
  9 34  1  0  0  0  0
 10 11  1  0  0  0  0
 10 35  1  0  0  0  0
 10 36  1  0  0  0  0
 11 37  1  0  0  0  0
 11 38  1  0  0  0  0
 12 13  1  0  0  0  0
 13 14  1  0  0  0  0
 13 40  1  0  0  0  0
 13 41  1  0  0  0  0
 14 15  1  0  0  0  0
 14 42  1  0  0  0  0
 14 43  1  0  0  0  0
 15 16  1  0  0  0  0
 15 44  1  0  0  0  0
 15 45  1  0  0  0  0
 16 17  1  0  0  0  0
 16 19  2  0  0  0  0
 17 18  1  0  0  0  0
 17 20  2  0  0  0  0
 18 21  2  0  0  0  0
 19 46  1  0  0  0  0
 20 22  1  0  0  0  0
 20 48  1  0  0  0  0
 21 23  1  0  0  0  0
 21 49  1  0  0  0  0
 22 23  2  0  0  0  0
 22 50  1  0  0  0  0
 23 51  1  0  0  0  0
M  END
> <PUBCHEM_COMPOUND_CID>
26413368

> <PUBCHEM_COMPOUND_CANONICALIZED>
1

> <PUBCHEM_CACTVS_COMPLEXITY>
363

> <PUBCHEM_CACTVS_HBOND_ACCEPTOR>
1

> <PUBCHEM_CACTVS_HBOND_DONOR>
2

> <PUBCHEM_CACTVS_ROTATABLE_BOND>
5

> <PUBCHEM_CACTVS_SUBSKEYS>
AAADceB7IAAAAAAAAAAAAAAAAAAAAWAAAAAwAAAAAAAYAFgB8AAAHgAQAAAADCjBngQ8wPLJkACoAzV3VACCgCAxAiAI2aE4ZJgIIPLAkZGEIAhglgDIyAcYiMCOgAAAAAACAAAAAAAAAAQAAAAAAAAAAA==

> <PUBCHEM_IUPAC_OPENEYE_NAME>
N-cyclooctyl-4-(1H-indol-3-yl)butanamide

> <PUBCHEM_IUPAC_CAS_NAME>
N-cyclooctyl-4-(1H-indol-3-yl)butanamide

> <PUBCHEM_IUPAC_NAME>
N-cyclooctyl-4-(1H-indol-3-yl)butanamide

> <PUBCHEM_IUPAC_SYSTEMATIC_NAME>
N-cyclooctyl-4-(1H-indol-3-yl)butanamide

> <PUBCHEM_IUPAC_TRADITIONAL_NAME>
N-cyclooctyl-4-(1H-indol-3-yl)butyramide

> <PUBCHEM_IUPAC_INCHI>
InChI=1S/C20H28N2O/c23-20(22-17-10-4-2-1-3-5-11-17)14-8-9-16-15-21-19-13-7-6-12-18(16)19/h6-7,12-13,15,17,21H,1-5,8-11,14H2,(H,22,23)

> <PUBCHEM_IUPAC_INCHIKEY>
BYXXEMSIJDVKQS-UHFFFAOYSA-N

> <PUBCHEM_XLOGP3>
4.9

> <PUBCHEM_EXACT_MASS>
312.220164

> <PUBCHEM_MOLECULAR_FORMULA>
C20H28N2O

> <PUBCHEM_MOLECULAR_WEIGHT>
312.44912

> <PUBCHEM_OPENEYE_CAN_SMILES>
C1CCCC(CCC1)NC(=O)CCCC2=CNC3=CC=CC=C32

> <PUBCHEM_OPENEYE_ISO_SMILES>
C1CCCC(CCC1)NC(=O)CCCC2=CNC3=CC=CC=C32

> <PUBCHEM_CACTVS_TPSA>
44.9

> <PUBCHEM_MONOISOTOPIC_WEIGHT>
312.220164

> <PUBCHEM_TOTAL_CHARGE>
0

> <PUBCHEM_HEAVY_ATOM_COUNT>
23

> <PUBCHEM_ATOM_DEF_STEREO_COUNT>
0

> <PUBCHEM_ATOM_UDEF_STEREO_COUNT>
0

> <PUBCHEM_BOND_DEF_STEREO_COUNT>
0

> <PUBCHEM_BOND_UDEF_STEREO_COUNT>
0

> <PUBCHEM_ISOTOPIC_ATOM_COUNT>
0

> <PUBCHEM_COMPONENT_COUNT>
1

> <PUBCHEM_CACTVS_TAUTO_COUNT>
2

> <PUBCHEM_COORDINATE_TYPE>
1
5
255

> <PUBCHEM_BONDANNOTATIONS>
16  17  8
16  19  8
17  18  8
17  20  8
18  21  8
20  22  8
21  23  8
22  23  8
3  18  8
3  19  8

$$$$
