38240837
  -OEChem-10191221482D

 39 41  0     0  0  0  0  0  0999 V2000
    6.6353   -1.0707    0.0000 O   0  0  0  0  0  0  0  0  0  0  0  0
    4.6783   -3.0926    0.0000 N   0  0  0  0  0  0  0  0  0  0  0  0
    6.2781    0.6241    0.0000 N   0  0  0  0  0  0  0  0  0  0  0  0
    4.6783   -1.4831    0.0000 C   0  0  0  0  0  0  0  0  0  0  0  0
    3.7321   -1.7879    0.0000 C   0  0  0  0  0  0  0  0  0  0  0  0
    4.9889   -0.5326    0.0000 C   0  0  0  0  0  0  0  0  0  0  0  0
    3.7321   -2.7879    0.0000 C   0  0  0  0  0  0  0  0  0  0  0  0
    5.2619   -2.2879    0.0000 C   0  0  0  0  0  0  0  0  0  0  0  0
    5.9674   -0.3264    0.0000 C   0  0  0  0  0  0  0  0  0  0  0  0
    2.8660   -1.2879    0.0000 C   0  0  0  0  0  0  0  0  0  0  0  0
    7.2566    0.8304    0.0000 C   0  0  0  0  0  0  0  0  0  0  0  0
    2.8660   -3.2879    0.0000 C   0  0  0  0  0  0  0  0  0  0  0  0
    7.5673    1.7809    0.0000 C   0  0  0  0  0  0  0  0  0  0  0  0
    2.0000   -1.7879    0.0000 C   0  0  0  0  0  0  0  0  0  0  0  0
    2.0000   -2.7879    0.0000 C   0  0  0  0  0  0  0  0  0  0  0  0
    8.5458    1.9871    0.0000 C   0  0  0  0  0  0  0  0  0  0  0  0
    8.8564    2.9376    0.0000 C   0  0  0  0  0  0  0  0  0  0  0  0
    6.8994    2.5252    0.0000 C   0  0  0  0  0  0  0  0  0  0  0  0
    8.1886    3.6819    0.0000 C   0  0  0  0  0  0  0  0  0  0  0  0
    7.2101    3.4757    0.0000 C   0  0  0  0  0  0  0  0  0  0  0  0
    9.8349    3.1438    0.0000 C   0  0  0  0  0  0  0  0  0  0  0  0
    4.9684    0.0871    0.0000 H   0  0  0  0  0  0  0  0  0  0  0  0
    4.3751   -0.4453    0.0000 H   0  0  0  0  0  0  0  0  0  0  0  0
    5.8819   -2.2879    0.0000 H   0  0  0  0  0  0  0  0  0  0  0  0
    4.8709   -3.6819    0.0000 H   0  0  0  0  0  0  0  0  0  0  0  0
    7.2772    0.2107    0.0000 H   0  0  0  0  0  0  0  0  0  0  0  0
    7.8704    0.7430    0.0000 H   0  0  0  0  0  0  0  0  0  0  0  0
    2.8660   -0.6679    0.0000 H   0  0  0  0  0  0  0  0  0  0  0  0
    2.8660   -3.9079    0.0000 H   0  0  0  0  0  0  0  0  0  0  0  0
    5.8640    1.0856    0.0000 H   0  0  0  0  0  0  0  0  0  0  0  0
    1.4631   -1.4779    0.0000 H   0  0  0  0  0  0  0  0  0  0  0  0
    1.4631   -3.0979    0.0000 H   0  0  0  0  0  0  0  0  0  0  0  0
    8.9598    1.5256    0.0000 H   0  0  0  0  0  0  0  0  0  0  0  0
    6.2928    2.3973    0.0000 H   0  0  0  0  0  0  0  0  0  0  0  0
    8.3812    4.2712    0.0000 H   0  0  0  0  0  0  0  0  0  0  0  0
    6.7960    3.9372    0.0000 H   0  0  0  0  0  0  0  0  0  0  0  0
    9.9628    2.5372    0.0000 H   0  0  0  0  0  0  0  0  0  0  0  0
   10.4416    3.2717    0.0000 H   0  0  0  0  0  0  0  0  0  0  0  0
    9.7071    3.7505    0.0000 H   0  0  0  0  0  0  0  0  0  0  0  0
  1  9  2  0  0  0  0
  2  7  1  0  0  0  0
  2  8  1  0  0  0  0
  2 25  1  0  0  0  0
  3  9  1  0  0  0  0
  3 11  1  0  0  0  0
  3 30  1  0  0  0  0
  4  5  1  0  0  0  0
  4  6  1  0  0  0  0
  4  8  2  0  0  0  0
  5  7  1  0  0  0  0
  5 10  2  0  0  0  0
  6  9  1  0  0  0  0
  6 22  1  0  0  0  0
  6 23  1  0  0  0  0
  7 12  2  0  0  0  0
  8 24  1  0  0  0  0
 10 14  1  0  0  0  0
 10 28  1  0  0  0  0
 11 13  1  0  0  0  0
 11 26  1  0  0  0  0
 11 27  1  0  0  0  0
 12 15  1  0  0  0  0
 12 29  1  0  0  0  0
 13 16  1  0  0  0  0
 13 18  2  0  0  0  0
 14 15  2  0  0  0  0
 14 31  1  0  0  0  0
 15 32  1  0  0  0  0
 16 17  2  0  0  0  0
 16 33  1  0  0  0  0
 17 19  1  0  0  0  0
 17 21  1  0  0  0  0
 18 20  1  0  0  0  0
 18 34  1  0  0  0  0
 19 20  2  0  0  0  0
 19 35  1  0  0  0  0
 20 36  1  0  0  0  0
 21 37  1  0  0  0  0
 21 38  1  0  0  0  0
 21 39  1  0  0  0  0
M  END
> <PUBCHEM_COMPOUND_CID>
38240837

> <PUBCHEM_COMPOUND_CANONICALIZED>
1

> <PUBCHEM_CACTVS_COMPLEXITY>
357

> <PUBCHEM_CACTVS_HBOND_ACCEPTOR>
1

> <PUBCHEM_CACTVS_HBOND_DONOR>
2

> <PUBCHEM_CACTVS_ROTATABLE_BOND>
4

> <PUBCHEM_CACTVS_SUBSKEYS>
AAADceB7IAAAAAAAAAAAAAAAAAAAAWAAAAAwYAAAAAAAAFgB9AAAHgAQAAAADAjBngQ+wPLJkACoAzV3VACCgCAxAiAI2aE4ZJgIIPLAlZGEIAhglgDIyAccicCegAACAAACAAAAAAQAAAQAAAAAAAAAAA==

> <PUBCHEM_IUPAC_OPENEYE_NAME>
2-(1H-indol-3-yl)-N-(m-tolylmethyl)acetamide

> <PUBCHEM_IUPAC_CAS_NAME>
2-(1H-indol-3-yl)-N-[(3-methylphenyl)methyl]acetamide

> <PUBCHEM_IUPAC_NAME>
2-(1H-indol-3-yl)-N-[(3-methylphenyl)methyl]acetamide

> <PUBCHEM_IUPAC_SYSTEMATIC_NAME>
2-(1H-indol-3-yl)-N-[(3-methylphenyl)methyl]ethanamide

> <PUBCHEM_IUPAC_TRADITIONAL_NAME>
2-(1H-indol-3-yl)-N-(3-methylbenzyl)acetamide

> <PUBCHEM_IUPAC_INCHI>
InChI=1S/C18H18N2O/c1-13-5-4-6-14(9-13)11-20-18(21)10-15-12-19-17-8-3-2-7-16(15)17/h2-9,12,19H,10-11H2,1H3,(H,20,21)

> <PUBCHEM_IUPAC_INCHIKEY>
ZXYOPIAGECPCFP-UHFFFAOYSA-N

> <PUBCHEM_XLOGP3>
3

> <PUBCHEM_EXACT_MASS>
278.141913

> <PUBCHEM_MOLECULAR_FORMULA>
C18H18N2O

> <PUBCHEM_MOLECULAR_WEIGHT>
278.34832

> <PUBCHEM_OPENEYE_CAN_SMILES>
CC1=CC(=CC=C1)CNC(=O)CC2=CNC3=CC=CC=C32

> <PUBCHEM_OPENEYE_ISO_SMILES>
CC1=CC(=CC=C1)CNC(=O)CC2=CNC3=CC=CC=C32

> <PUBCHEM_CACTVS_TPSA>
44.9

> <PUBCHEM_MONOISOTOPIC_WEIGHT>
278.141913

> <PUBCHEM_TOTAL_CHARGE>
0

> <PUBCHEM_HEAVY_ATOM_COUNT>
21

> <PUBCHEM_ATOM_DEF_STEREO_COUNT>
0

> <PUBCHEM_ATOM_UDEF_STEREO_COUNT>
0

> <PUBCHEM_BOND_DEF_STEREO_COUNT>
0

> <PUBCHEM_BOND_UDEF_STEREO_COUNT>
0

> <PUBCHEM_ISOTOPIC_ATOM_COUNT>
0

> <PUBCHEM_COMPONENT_COUNT>
1

> <PUBCHEM_CACTVS_TAUTO_COUNT>
2

> <PUBCHEM_COORDINATE_TYPE>
1
5
255

> <PUBCHEM_BONDANNOTATIONS>
10  14  8
12  15  8
13  16  8
13  18  8
14  15  8
16  17  8
17  19  8
18  20  8
19  20  8
2  7  8
2  8  8
4  5  8
4  8  8
5  10  8
5  7  8
7  12  8

$$$$
