42387266
  -OEChem-11301217512D

 44 45  0     0  0  0  0  0  0999 V2000
    6.0000    0.6651    0.0000 O   0  0  0  0  0  0  0  0  0  0  0  0
    8.0000    0.6651    0.0000 N   0  3  0  0  0  0  0  0  0  0  0  0
    6.0000   -1.0670    0.0000 N   0  0  0  0  0  0  0  0  0  0  0  0
    8.0000    2.6651    0.0000 C   0  0  0  0  0  0  0  0  0  0  0  0
    7.1340    1.1651    0.0000 C   0  0  0  0  0  0  0  0  0  0  0  0
    8.8660    1.1651    0.0000 C   0  0  0  0  0  0  0  0  0  0  0  0
    7.1340    2.1651    0.0000 C   0  0  0  0  0  0  0  0  0  0  0  0
    8.8660    2.1651    0.0000 C   0  0  0  0  0  0  0  0  0  0  0  0
    7.5000   -0.2010    0.0000 C   0  0  0  0  0  0  0  0  0  0  0  0
    8.0000    3.6651    0.0000 C   0  0  0  0  0  0  0  0  0  0  0  0
    6.5000   -0.2010    0.0000 C   0  0  0  0  0  0  0  0  0  0  0  0
    5.0000   -1.0670    0.0000 C   0  0  0  0  0  0  0  0  0  0  0  0
    4.5000   -1.9330    0.0000 C   0  0  0  0  0  0  0  0  0  0  0  0
    3.5000   -1.9330    0.0000 C   0  0  0  0  0  0  0  0  0  0  0  0
    5.0000   -2.7990    0.0000 C   0  0  0  0  0  0  0  0  0  0  0  0
    3.0000   -2.7990    0.0000 C   0  0  0  0  0  0  0  0  0  0  0  0
    4.5000   -3.6651    0.0000 C   0  0  0  0  0  0  0  0  0  0  0  0
    3.5000   -3.6651    0.0000 C   0  0  0  0  0  0  0  0  0  0  0  0
    2.0000   -2.7990    0.0000 C   0  0  0  0  0  0  0  0  0  0  0  0
    8.3100    0.1281    0.0000 H   0  0  0  0  0  0  0  0  0  0  0  0
    8.5369    2.9751    0.0000 H   0  0  0  0  0  0  0  0  0  0  0  0
    6.5234    1.2727    0.0000 H   0  0  0  0  0  0  0  0  0  0  0  0
    6.9219    0.5825    0.0000 H   0  0  0  0  0  0  0  0  0  0  0  0
    9.0781    0.5825    0.0000 H   0  0  0  0  0  0  0  0  0  0  0  0
    9.4766    1.2727    0.0000 H   0  0  0  0  0  0  0  0  0  0  0  0
    6.9219    2.7477    0.0000 H   0  0  0  0  0  0  0  0  0  0  0  0
    6.5234    2.0574    0.0000 H   0  0  0  0  0  0  0  0  0  0  0  0
    9.4766    2.0574    0.0000 H   0  0  0  0  0  0  0  0  0  0  0  0
    9.0781    2.7477    0.0000 H   0  0  0  0  0  0  0  0  0  0  0  0
    7.3923   -0.8115    0.0000 H   0  0  0  0  0  0  0  0  0  0  0  0
    8.0826   -0.4130    0.0000 H   0  0  0  0  0  0  0  0  0  0  0  0
    8.6200    3.6651    0.0000 H   0  0  0  0  0  0  0  0  0  0  0  0
    8.0000    4.2851    0.0000 H   0  0  0  0  0  0  0  0  0  0  0  0
    7.3800    3.6651    0.0000 H   0  0  0  0  0  0  0  0  0  0  0  0
    6.3100   -1.6039    0.0000 H   0  0  0  0  0  0  0  0  0  0  0  0
    5.1077   -0.4564    0.0000 H   0  0  0  0  0  0  0  0  0  0  0  0
    4.4174   -0.8549    0.0000 H   0  0  0  0  0  0  0  0  0  0  0  0
    3.1900   -1.3961    0.0000 H   0  0  0  0  0  0  0  0  0  0  0  0
    5.6200   -2.7990    0.0000 H   0  0  0  0  0  0  0  0  0  0  0  0
    4.8100   -4.2020    0.0000 H   0  0  0  0  0  0  0  0  0  0  0  0
    3.1900   -4.2020    0.0000 H   0  0  0  0  0  0  0  0  0  0  0  0
    2.0000   -2.1790    0.0000 H   0  0  0  0  0  0  0  0  0  0  0  0
    1.3800   -2.7990    0.0000 H   0  0  0  0  0  0  0  0  0  0  0  0
    2.0000   -3.4190    0.0000 H   0  0  0  0  0  0  0  0  0  0  0  0
  1 11  2  0  0  0  0
  2  5  1  0  0  0  0
  2  6  1  0  0  0  0
  2  9  1  0  0  0  0
  2 20  1  0  0  0  0
  3 11  1  0  0  0  0
  3 12  1  0  0  0  0
  3 35  1  0  0  0  0
  4  7  1  0  0  0  0
  4  8  1  0  0  0  0
  4 10  1  0  0  0  0
  4 21  1  0  0  0  0
  5  7  1  0  0  0  0
  5 22  1  0  0  0  0
  5 23  1  0  0  0  0
  6  8  1  0  0  0  0
  6 24  1  0  0  0  0
  6 25  1  0  0  0  0
  7 26  1  0  0  0  0
  7 27  1  0  0  0  0
  8 28  1  0  0  0  0
  8 29  1  0  0  0  0
  9 11  1  0  0  0  0
  9 30  1  0  0  0  0
  9 31  1  0  0  0  0
 10 32  1  0  0  0  0
 10 33  1  0  0  0  0
 10 34  1  0  0  0  0
 12 13  1  0  0  0  0
 12 36  1  0  0  0  0
 12 37  1  0  0  0  0
 13 14  1  0  0  0  0
 13 15  2  0  0  0  0
 14 16  2  0  0  0  0
 14 38  1  0  0  0  0
 15 17  1  0  0  0  0
 15 39  1  0  0  0  0
 16 18  1  0  0  0  0
 16 19  1  0  0  0  0
 17 18  2  0  0  0  0
 17 40  1  0  0  0  0
 18 41  1  0  0  0  0
 19 42  1  0  0  0  0
 19 43  1  0  0  0  0
 19 44  1  0  0  0  0
M  CHG  1   2   1
M  END
> <PUBCHEM_COMPOUND_CID>
42387266

> <PUBCHEM_COMPOUND_CANONICALIZED>
1

> <PUBCHEM_CACTVS_COMPLEXITY>
285

> <PUBCHEM_CACTVS_HBOND_ACCEPTOR>
1

> <PUBCHEM_CACTVS_HBOND_DONOR>
2

> <PUBCHEM_CACTVS_ROTATABLE_BOND>
4

> <PUBCHEM_CACTVS_SUBSKEYS>
AAADceB7IAAAAAAAAAAAAAAAAAAAAAAAAAA8QAAAAAAAAAABAAAAHgAQAAAADQDBmAQyAIPAAACIAiFSEACCAAAgAAAIiICIBIgIYCKAkTGUIAhglgCIiAcQgEAOAAACAAAAAAAAAAQAAAAAAAAAAAAAAA==

> <PUBCHEM_IUPAC_OPENEYE_NAME>
2-(4-methylpiperidin-1-ium-1-yl)-N-(m-tolylmethyl)acetamide

> <PUBCHEM_IUPAC_CAS_NAME>
N-[(3-methylphenyl)methyl]-2-(4-methyl-1-piperidin-1-iumyl)acetamide

> <PUBCHEM_IUPAC_NAME>
N-[(3-methylphenyl)methyl]-2-(4-methylpiperidin-1-ium-1-yl)acetamide

> <PUBCHEM_IUPAC_SYSTEMATIC_NAME>
N-[(3-methylphenyl)methyl]-2-(4-methylpiperidin-1-ium-1-yl)ethanamide

> <PUBCHEM_IUPAC_TRADITIONAL_NAME>
N-(3-methylbenzyl)-2-(4-methylpiperidin-1-ium-1-yl)acetamide

> <PUBCHEM_IUPAC_INCHI>
InChI=1S/C16H24N2O/c1-13-6-8-18(9-7-13)12-16(19)17-11-15-5-3-4-14(2)10-15/h3-5,10,13H,6-9,11-12H2,1-2H3,(H,17,19)/p+1

> <PUBCHEM_IUPAC_INCHIKEY>
SSECSCZOKWNNJT-UHFFFAOYSA-O

> <PUBCHEM_XLOGP3>
2.8

> <PUBCHEM_EXACT_MASS>
261.196688

> <PUBCHEM_MOLECULAR_FORMULA>
C16H25N2O+

> <PUBCHEM_MOLECULAR_WEIGHT>
261.3825

> <PUBCHEM_OPENEYE_CAN_SMILES>
CC1CC[NH+](CC1)CC(=O)NCC2=CC=CC(=C2)C

> <PUBCHEM_OPENEYE_ISO_SMILES>
CC1CC[NH+](CC1)CC(=O)NCC2=CC=CC(=C2)C

> <PUBCHEM_CACTVS_TPSA>
33.5

> <PUBCHEM_MONOISOTOPIC_WEIGHT>
261.196688

> <PUBCHEM_TOTAL_CHARGE>
1

> <PUBCHEM_HEAVY_ATOM_COUNT>
19

> <PUBCHEM_ATOM_DEF_STEREO_COUNT>
0

> <PUBCHEM_ATOM_UDEF_STEREO_COUNT>
0

> <PUBCHEM_BOND_DEF_STEREO_COUNT>
0

> <PUBCHEM_BOND_UDEF_STEREO_COUNT>
0

> <PUBCHEM_ISOTOPIC_ATOM_COUNT>
0

> <PUBCHEM_COMPONENT_COUNT>
1

> <PUBCHEM_CACTVS_TAUTO_COUNT>
2

> <PUBCHEM_COORDINATE_TYPE>
1
5
255

> <PUBCHEM_BONDANNOTATIONS>
13  14  8
13  15  8
14  16  8
15  17  8
16  18  8
17  18  8

$$$$
