35714382
  -OEChem-12041211492D

 24 25  0     0  0  0  0  0  0999 V2000
    6.0010    1.8100    0.0000 S   0  0  0  0  0  0  0  0  0  0  0  0
    6.0010   -1.1900    0.0000 N   0  0  0  0  0  0  0  0  0  0  0  0
    5.1350    0.3100    0.0000 N   0  0  0  0  0  0  0  0  0  0  0  0
    4.2690   -1.1900    0.0000 N   0  0  0  0  0  0  0  0  0  0  0  0
    2.5369   -1.1900    0.0000 N   0  0  0  0  0  0  0  0  0  0  0  0
    3.4030    0.3100    0.0000 N   0  0  0  0  0  0  0  0  0  0  0  0
    6.8671   -0.6900    0.0000 C   0  0  0  0  0  0  0  0  0  0  0  0
    6.8671    0.3100    0.0000 C   0  0  0  0  0  0  0  0  0  0  0  0
    7.7610   -1.2247    0.0000 C   0  0  0  0  0  0  0  0  0  0  0  0
    7.7610    0.8447    0.0000 C   0  0  0  0  0  0  0  0  0  0  0  0
    6.0010    0.8100    0.0000 C   0  0  0  0  0  0  0  0  0  0  0  0
    5.1350   -0.6900    0.0000 C   0  0  0  0  0  0  0  0  0  0  0  0
    8.6671   -0.7108    0.0000 C   0  0  0  0  0  0  0  0  0  0  0  0
    8.6671    0.3308    0.0000 C   0  0  0  0  0  0  0  0  0  0  0  0
    3.4030   -0.6900    0.0000 C   0  0  0  0  0  0  0  0  0  0  0  0
    6.0010   -1.8100    0.0000 H   0  0  0  0  0  0  0  0  0  0  0  0
    7.7538   -1.8446    0.0000 H   0  0  0  0  0  0  0  0  0  0  0  0
    7.7538    1.4646    0.0000 H   0  0  0  0  0  0  0  0  0  0  0  0
    9.2028   -1.0229    0.0000 H   0  0  0  0  0  0  0  0  0  0  0  0
    9.2028    0.6429    0.0000 H   0  0  0  0  0  0  0  0  0  0  0  0
    2.0000   -0.8800    0.0000 H   0  0  0  0  0  0  0  0  0  0  0  0
    2.5369   -1.8100    0.0000 H   0  0  0  0  0  0  0  0  0  0  0  0
    2.8660    0.6200    0.0000 H   0  0  0  0  0  0  0  0  0  0  0  0
    3.9399    0.6200    0.0000 H   0  0  0  0  0  0  0  0  0  0  0  0
  1 11  2  0  0  0  0
  2  7  1  0  0  0  0
  2 12  1  0  0  0  0
  2 16  1  0  0  0  0
  3 11  1  0  0  0  0
  3 12  2  0  0  0  0
  4 12  1  0  0  0  0
  4 15  2  0  0  0  0
  5 15  1  0  0  0  0
  5 21  1  0  0  0  0
  5 22  1  0  0  0  0
  6 15  1  0  0  0  0
  6 23  1  0  0  0  0
  6 24  1  0  0  0  0
  7  8  1  0  0  0  0
  7  9  2  0  0  0  0
  8 10  2  0  0  0  0
  8 11  1  0  0  0  0
  9 13  1  0  0  0  0
  9 17  1  0  0  0  0
 10 14  1  0  0  0  0
 10 18  1  0  0  0  0
 13 14  2  0  0  0  0
 13 19  1  0  0  0  0
 14 20  1  0  0  0  0
M  END
> <PUBCHEM_COMPOUND_CID>
35714382

> <PUBCHEM_COMPOUND_CANONICALIZED>
1

> <PUBCHEM_CACTVS_COMPLEXITY>
331

> <PUBCHEM_CACTVS_HBOND_ACCEPTOR>
1

> <PUBCHEM_CACTVS_HBOND_DONOR>
3

> <PUBCHEM_CACTVS_ROTATABLE_BOND>
1

> <PUBCHEM_CACTVS_SUBSKEYS>
AAADccBzgABAAAAAAAAAAAAAAAAAAAAAAAAwQAAAAAAAAACBAAAAHAQQAAAADAiBWAAxwILAAACkAiRCZACCAAEhAgAJiAAAZIiIICLA2ZGEIAhgkAJIyCcQgAAOAAAAAAACAAAAAAAAAAQAAAAAAAAAAA==

> <PUBCHEM_IUPAC_OPENEYE_NAME>
2-(4-thioxo-1H-quinazolin-2-yl)guanidine

> <PUBCHEM_IUPAC_CAS_NAME>
2-(4-sulfanylidene-1H-quinazolin-2-yl)guanidine

> <PUBCHEM_IUPAC_NAME>
2-(4-sulfanylidene-1H-quinazolin-2-yl)guanidine

> <PUBCHEM_IUPAC_SYSTEMATIC_NAME>
2-(4-sulfanylidene-1H-quinazolin-2-yl)guanidine

> <PUBCHEM_IUPAC_TRADITIONAL_NAME>
2-(4-thioxo-1H-quinazolin-2-yl)guanidine

> <PUBCHEM_IUPAC_INCHI>
InChI=1S/C9H9N5S/c10-8(11)14-9-12-6-4-2-1-3-5(6)7(15)13-9/h1-4H,(H5,10,11,12,13,14,15)

> <PUBCHEM_IUPAC_INCHIKEY>
IPKOSQHJUIDZIA-UHFFFAOYSA-N

> <PUBCHEM_XLOGP3>
0.7

> <PUBCHEM_EXACT_MASS>
219.057866

> <PUBCHEM_MOLECULAR_FORMULA>
C9H9N5S

> <PUBCHEM_MOLECULAR_WEIGHT>
219.26626

> <PUBCHEM_OPENEYE_CAN_SMILES>
C1=CC=C2C(=C1)C(=S)N=C(N2)N=C(N)N

> <PUBCHEM_OPENEYE_ISO_SMILES>
C1=CC=C2C(=C1)C(=S)N=C(N2)N=C(N)N

> <PUBCHEM_CACTVS_TPSA>
121

> <PUBCHEM_MONOISOTOPIC_WEIGHT>
219.057866

> <PUBCHEM_TOTAL_CHARGE>
0

> <PUBCHEM_HEAVY_ATOM_COUNT>
15

> <PUBCHEM_ATOM_DEF_STEREO_COUNT>
0

> <PUBCHEM_ATOM_UDEF_STEREO_COUNT>
0

> <PUBCHEM_BOND_DEF_STEREO_COUNT>
0

> <PUBCHEM_BOND_UDEF_STEREO_COUNT>
0

> <PUBCHEM_ISOTOPIC_ATOM_COUNT>
0

> <PUBCHEM_COMPONENT_COUNT>
1

> <PUBCHEM_CACTVS_TAUTO_COUNT>
17

> <PUBCHEM_COORDINATE_TYPE>
1
5
255

> <PUBCHEM_BONDANNOTATIONS>
10  14  8
13  14  8
2  12  8
2  7  8
3  11  8
3  12  8
7  8  8
7  9  8
8  10  8
8  11  8
9  13  8

$$$$
