62585785
  -OEChem-10231221312D

 35 36  0     0  0  0  0  0  0999 V2000
    6.6906   -1.8608    0.0000 I   0  0  0  0  0  0  0  0  0  0  0  0
    5.6906    1.6033    0.0000 O   0  0  0  0  0  0  0  0  0  0  0  0
    5.6906   -0.1287    0.0000 N   0  0  0  0  0  0  0  0  0  0  0  0
    4.1906    0.7373    0.0000 C   0  0  0  0  0  0  0  0  0  0  0  0
    3.7568   -0.1637    0.0000 C   0  0  0  0  0  0  0  0  0  0  0  0
    3.7568    1.6383    0.0000 C   0  0  0  0  0  0  0  0  0  0  0  0
    2.7818   -0.3862    0.0000 C   0  0  0  0  0  0  0  0  0  0  0  0
    2.7818    1.8608    0.0000 C   0  0  0  0  0  0  0  0  0  0  0  0
    2.0000    0.2373    0.0000 C   0  0  0  0  0  0  0  0  0  0  0  0
    2.0000    1.2373    0.0000 C   0  0  0  0  0  0  0  0  0  0  0  0
    5.1906    0.7373    0.0000 C   0  0  0  0  0  0  0  0  0  0  0  0
    6.6906   -0.1287    0.0000 C   0  0  0  0  0  0  0  0  0  0  0  0
    7.1906   -0.9948    0.0000 C   0  0  0  0  0  0  0  0  0  0  0  0
    7.1906    0.7373    0.0000 C   0  0  0  0  0  0  0  0  0  0  0  0
    8.1906   -0.9948    0.0000 C   0  0  0  0  0  0  0  0  0  0  0  0
    8.1906    0.7373    0.0000 C   0  0  0  0  0  0  0  0  0  0  0  0
    8.6906   -0.1287    0.0000 C   0  0  0  0  0  0  0  0  0  0  0  0
    4.5205    0.2123    0.0000 H   0  0  0  0  0  0  0  0  0  0  0  0
    3.7568   -0.7837    0.0000 H   0  0  0  0  0  0  0  0  0  0  0  0
    4.3612   -0.3016    0.0000 H   0  0  0  0  0  0  0  0  0  0  0  0
    4.3612    1.7762    0.0000 H   0  0  0  0  0  0  0  0  0  0  0  0
    3.7568    2.2583    0.0000 H   0  0  0  0  0  0  0  0  0  0  0  0
    2.2971   -0.7728    0.0000 H   0  0  0  0  0  0  0  0  0  0  0  0
    3.0508   -0.9448    0.0000 H   0  0  0  0  0  0  0  0  0  0  0  0
    3.0508    2.4194    0.0000 H   0  0  0  0  0  0  0  0  0  0  0  0
    2.2971    2.2474    0.0000 H   0  0  0  0  0  0  0  0  0  0  0  0
    1.3955    0.3753    0.0000 H   0  0  0  0  0  0  0  0  0  0  0  0
    1.7310   -0.3213    0.0000 H   0  0  0  0  0  0  0  0  0  0  0  0
    1.7310    1.7959    0.0000 H   0  0  0  0  0  0  0  0  0  0  0  0
    1.3955    1.0993    0.0000 H   0  0  0  0  0  0  0  0  0  0  0  0
    5.3806   -0.6657    0.0000 H   0  0  0  0  0  0  0  0  0  0  0  0
    6.8806    1.2742    0.0000 H   0  0  0  0  0  0  0  0  0  0  0  0
    8.5006   -1.5317    0.0000 H   0  0  0  0  0  0  0  0  0  0  0  0
    8.5006    1.2742    0.0000 H   0  0  0  0  0  0  0  0  0  0  0  0
    9.3106   -0.1287    0.0000 H   0  0  0  0  0  0  0  0  0  0  0  0
  1 13  1  0  0  0  0
  2 11  2  0  0  0  0
  3 11  1  0  0  0  0
  3 12  1  0  0  0  0
  3 31  1  0  0  0  0
  4  5  1  0  0  0  0
  4  6  1  0  0  0  0
  4 11  1  0  0  0  0
  4 18  1  0  0  0  0
  5  7  1  0  0  0  0
  5 19  1  0  0  0  0
  5 20  1  0  0  0  0
  6  8  1  0  0  0  0
  6 21  1  0  0  0  0
  6 22  1  0  0  0  0
  7  9  1  0  0  0  0
  7 23  1  0  0  0  0
  7 24  1  0  0  0  0
  8 10  1  0  0  0  0
  8 25  1  0  0  0  0
  8 26  1  0  0  0  0
  9 10  1  0  0  0  0
  9 27  1  0  0  0  0
  9 28  1  0  0  0  0
 10 29  1  0  0  0  0
 10 30  1  0  0  0  0
 12 13  1  0  0  0  0
 12 14  2  0  0  0  0
 13 15  2  0  0  0  0
 14 16  1  0  0  0  0
 14 32  1  0  0  0  0
 15 17  1  0  0  0  0
 15 33  1  0  0  0  0
 16 17  2  0  0  0  0
 16 34  1  0  0  0  0
 17 35  1  0  0  0  0
M  END
> <PUBCHEM_COMPOUND_CID>
62585785

> <PUBCHEM_COMPOUND_CANONICALIZED>
1

> <PUBCHEM_CACTVS_COMPLEXITY>
249

> <PUBCHEM_CACTVS_HBOND_ACCEPTOR>
1

> <PUBCHEM_CACTVS_HBOND_DONOR>
1

> <PUBCHEM_CACTVS_ROTATABLE_BOND>
2

> <PUBCHEM_CACTVS_SUBSKEYS>
AAADceByIAAAAgAAAAAAAAAAAAAAAAAAAAAwAAAABgAAAAABAAAAHgAwAAAADQiDkAAwwILAAACIACVSUACCAAAhAgAIiAEAZIgIIDLAkZGEIAhglADIyAcYiMCOAAAAAAAAAAAAAAAAAAAAAAAAAAAAAA==

> <PUBCHEM_IUPAC_OPENEYE_NAME>
N-(2-iodophenyl)cycloheptanecarboxamide

> <PUBCHEM_IUPAC_CAS_NAME>
N-(2-iodophenyl)cycloheptanecarboxamide

> <PUBCHEM_IUPAC_NAME>
N-(2-iodophenyl)cycloheptanecarboxamide

> <PUBCHEM_IUPAC_SYSTEMATIC_NAME>
N-(2-iodanylphenyl)cycloheptanecarboxamide

> <PUBCHEM_IUPAC_TRADITIONAL_NAME>
N-(2-iodophenyl)cycloheptanecarboxamide

> <PUBCHEM_IUPAC_INCHI>
InChI=1S/C14H18INO/c15-12-9-5-6-10-13(12)16-14(17)11-7-3-1-2-4-8-11/h5-6,9-11H,1-4,7-8H2,(H,16,17)

> <PUBCHEM_IUPAC_INCHIKEY>
TZIAQGLWCWRMSI-UHFFFAOYSA-N

> <PUBCHEM_XLOGP3>
4.2

> <PUBCHEM_EXACT_MASS>
343.043312

> <PUBCHEM_MOLECULAR_FORMULA>
C14H18INO

> <PUBCHEM_MOLECULAR_WEIGHT>
343.20329

> <PUBCHEM_OPENEYE_CAN_SMILES>
C1CCCC(CC1)C(=O)NC2=CC=CC=C2I

> <PUBCHEM_OPENEYE_ISO_SMILES>
C1CCCC(CC1)C(=O)NC2=CC=CC=C2I

> <PUBCHEM_CACTVS_TPSA>
29.1

> <PUBCHEM_MONOISOTOPIC_WEIGHT>
343.043312

> <PUBCHEM_TOTAL_CHARGE>
0

> <PUBCHEM_HEAVY_ATOM_COUNT>
17

> <PUBCHEM_ATOM_DEF_STEREO_COUNT>
0

> <PUBCHEM_ATOM_UDEF_STEREO_COUNT>
0

> <PUBCHEM_BOND_DEF_STEREO_COUNT>
0

> <PUBCHEM_BOND_UDEF_STEREO_COUNT>
0

> <PUBCHEM_ISOTOPIC_ATOM_COUNT>
0

> <PUBCHEM_COMPONENT_COUNT>
1

> <PUBCHEM_CACTVS_TAUTO_COUNT>
3

> <PUBCHEM_COORDINATE_TYPE>
1
5
255

> <PUBCHEM_BONDANNOTATIONS>
12  13  8
12  14  8
13  15  8
14  16  8
15  17  8
16  17  8

$$$$
62587034
  -OEChem-10231221322D

 40 42  0     0  0  0  0  0  0999 V2000
    4.3211    1.7015    0.0000 O   0  0  0  0  0  0  0  0  0  0  0  0
    4.6783   -1.6028    0.0000 N   0  0  0  0  0  0  0  0  0  0  0  0
    5.9674    1.1634    0.0000 C   0  0  0  0  0  0  0  0  0  0  0  0
    6.5778    0.3713    0.0000 C   0  0  0  0  0  0  0  0  0  0  0  0
    6.2062    2.1345    0.0000 C   0  0  0  0  0  0  0  0  0  0  0  0
    7.1143    2.5533    0.0000 C   0  0  0  0  0  0  0  0  0  0  0  0
    7.5776    0.3546    0.0000 C   0  0  0  0  0  0  0  0  0  0  0  0
    8.0079    2.1044    0.0000 C   0  0  0  0  0  0  0  0  0  0  0  0
    8.2141    1.1259    0.0000 C   0  0  0  0  0  0  0  0  0  0  0  0
    4.9889    0.9572    0.0000 C   0  0  0  0  0  0  0  0  0  0  0  0
    4.6783    0.0067    0.0000 C   0  0  0  0  0  0  0  0  0  0  0  0
    3.7320   -0.2980    0.0000 C   0  0  0  0  0  0  0  0  0  0  0  0
    5.2619   -0.7980    0.0000 C   0  0  0  0  0  0  0  0  0  0  0  0
    3.7320   -1.2980    0.0000 C   0  0  0  0  0  0  0  0  0  0  0  0
    2.8660    0.2020    0.0000 C   0  0  0  0  0  0  0  0  0  0  0  0
    2.8660   -1.7980    0.0000 C   0  0  0  0  0  0  0  0  0  0  0  0
    4.9889   -2.5533    0.0000 C   0  0  0  0  0  0  0  0  0  0  0  0
    2.0000   -0.2980    0.0000 C   0  0  0  0  0  0  0  0  0  0  0  0
    2.0000   -1.2980    0.0000 C   0  0  0  0  0  0  0  0  0  0  0  0
    5.5364    1.6091    0.0000 H   0  0  0  0  0  0  0  0  0  0  0  0
    6.0148    0.1117    0.0000 H   0  0  0  0  0  0  0  0  0  0  0  0
    6.0783    2.7412    0.0000 H   0  0  0  0  0  0  0  0  0  0  0  0
    5.5863    2.1449    0.0000 H   0  0  0  0  0  0  0  0  0  0  0  0
    6.7056   -0.2354    0.0000 H   0  0  0  0  0  0  0  0  0  0  0  0
    7.5089    3.0315    0.0000 H   0  0  0  0  0  0  0  0  0  0  0  0
    6.7359    3.0444    0.0000 H   0  0  0  0  0  0  0  0  0  0  0  0
    7.4296   -0.2475    0.0000 H   0  0  0  0  0  0  0  0  0  0  0  0
    8.1317    0.0763    0.0000 H   0  0  0  0  0  0  0  0  0  0  0  0
    8.6278    2.0941    0.0000 H   0  0  0  0  0  0  0  0  0  0  0  0
    8.1559    2.7065    0.0000 H   0  0  0  0  0  0  0  0  0  0  0  0
    8.5925    0.6348    0.0000 H   0  0  0  0  0  0  0  0  0  0  0  0
    8.7771    1.3856    0.0000 H   0  0  0  0  0  0  0  0  0  0  0  0
    5.8819   -0.7980    0.0000 H   0  0  0  0  0  0  0  0  0  0  0  0
    2.8660    0.8220    0.0000 H   0  0  0  0  0  0  0  0  0  0  0  0
    2.8660   -2.4180    0.0000 H   0  0  0  0  0  0  0  0  0  0  0  0
    4.3996   -2.7459    0.0000 H   0  0  0  0  0  0  0  0  0  0  0  0
    5.1815   -3.1426    0.0000 H   0  0  0  0  0  0  0  0  0  0  0  0
    5.5783   -2.3607    0.0000 H   0  0  0  0  0  0  0  0  0  0  0  0
    1.4631    0.0120    0.0000 H   0  0  0  0  0  0  0  0  0  0  0  0
    1.4631   -1.6080    0.0000 H   0  0  0  0  0  0  0  0  0  0  0  0
  1 10  2  0  0  0  0
  2 13  1  0  0  0  0
  2 14  1  0  0  0  0
  2 17  1  0  0  0  0
  3  4  1  0  0  0  0
  3  5  1  0  0  0  0
  3 10  1  0  0  0  0
  3 20  1  0  0  0  0
  4  7  1  0  0  0  0
  4 21  1  0  0  0  0
  4 24  1  0  0  0  0
  5  6  1  0  0  0  0
  5 22  1  0  0  0  0
  5 23  1  0  0  0  0
  6  8  1  0  0  0  0
  6 25  1  0  0  0  0
  6 26  1  0  0  0  0
  7  9  1  0  0  0  0
  7 27  1  0  0  0  0
  7 28  1  0  0  0  0
  8  9  1  0  0  0  0
  8 29  1  0  0  0  0
  8 30  1  0  0  0  0
  9 31  1  0  0  0  0
  9 32  1  0  0  0  0
 10 11  1  0  0  0  0
 11 12  1  0  0  0  0
 11 13  2  0  0  0  0
 12 14  1  0  0  0  0
 12 15  2  0  0  0  0
 13 33  1  0  0  0  0
 14 16  2  0  0  0  0
 15 18  1  0  0  0  0
 15 34  1  0  0  0  0
 16 19  1  0  0  0  0
 16 35  1  0  0  0  0
 17 36  1  0  0  0  0
 17 37  1  0  0  0  0
 17 38  1  0  0  0  0
 18 19  2  0  0  0  0
 18 39  1  0  0  0  0
 19 40  1  0  0  0  0
M  END
> <PUBCHEM_COMPOUND_CID>
62587034

> <PUBCHEM_COMPOUND_CANONICALIZED>
1

> <PUBCHEM_CACTVS_COMPLEXITY>
319

> <PUBCHEM_CACTVS_HBOND_ACCEPTOR>
1

> <PUBCHEM_CACTVS_HBOND_DONOR>
0

> <PUBCHEM_CACTVS_ROTATABLE_BOND>
2

> <PUBCHEM_CACTVS_SUBSKEYS>
AAADceB6IAAAAAAAAAAAAAAAAAAAAWAAAAAwAAAABgAAAFgB8AAAHgAAAAAADQzBngQ+wPMMEACoA7R3RACCgCA1AiAI2CE4ZNgIIPrAlZGEIYhggADIyccciMCOgAAAAAACAAAAAAAAAAQAAAAAAAAAAA==

> <PUBCHEM_IUPAC_OPENEYE_NAME>
cycloheptyl-(1-methylindol-3-yl)methanone

> <PUBCHEM_IUPAC_CAS_NAME>
cycloheptyl-(1-methyl-3-indolyl)methanone

> <PUBCHEM_IUPAC_NAME>
cycloheptyl-(1-methylindol-3-yl)methanone

> <PUBCHEM_IUPAC_SYSTEMATIC_NAME>
cycloheptyl-(1-methylindol-3-yl)methanone

> <PUBCHEM_IUPAC_TRADITIONAL_NAME>
cycloheptyl-(1-methylindol-3-yl)methanone

> <PUBCHEM_IUPAC_INCHI>
InChI=1S/C17H21NO/c1-18-12-15(14-10-6-7-11-16(14)18)17(19)13-8-4-2-3-5-9-13/h6-7,10-13H,2-5,8-9H2,1H3

> <PUBCHEM_IUPAC_INCHIKEY>
IPXKSOUYKZPRRQ-UHFFFAOYSA-N

> <PUBCHEM_XLOGP3>
4.6

> <PUBCHEM_EXACT_MASS>
255.162314

> <PUBCHEM_MOLECULAR_FORMULA>
C17H21NO

> <PUBCHEM_MOLECULAR_WEIGHT>
255.35474

> <PUBCHEM_OPENEYE_CAN_SMILES>
CN1C=C(C2=CC=CC=C21)C(=O)C3CCCCCC3

> <PUBCHEM_OPENEYE_ISO_SMILES>
CN1C=C(C2=CC=CC=C21)C(=O)C3CCCCCC3

> <PUBCHEM_CACTVS_TPSA>
22

> <PUBCHEM_MONOISOTOPIC_WEIGHT>
255.162314

> <PUBCHEM_TOTAL_CHARGE>
0

> <PUBCHEM_HEAVY_ATOM_COUNT>
19

> <PUBCHEM_ATOM_DEF_STEREO_COUNT>
0

> <PUBCHEM_ATOM_UDEF_STEREO_COUNT>
0

> <PUBCHEM_BOND_DEF_STEREO_COUNT>
0

> <PUBCHEM_BOND_UDEF_STEREO_COUNT>
0

> <PUBCHEM_ISOTOPIC_ATOM_COUNT>
0

> <PUBCHEM_COMPONENT_COUNT>
1

> <PUBCHEM_CACTVS_TAUTO_COUNT>
2

> <PUBCHEM_COORDINATE_TYPE>
1
5
255

> <PUBCHEM_BONDANNOTATIONS>
11  12  8
11  13  8
12  14  8
12  15  8
14  16  8
15  18  8
16  19  8
18  19  8
2  13  8
2  14  8

$$$$
62587947
  -OEChem-10231221322D

 35 36  0     0  0  0  0  0  0999 V2000
    8.6906   -1.8608    0.0000 Br  0  0  0  0  0  0  0  0  0  0  0  0
    5.6906    1.6033    0.0000 O   0  0  0  0  0  0  0  0  0  0  0  0
    5.6906   -0.1287    0.0000 N   0  0  0  0  0  0  0  0  0  0  0  0
    4.1906    0.7373    0.0000 C   0  0  0  0  0  0  0  0  0  0  0  0
    3.7568   -0.1637    0.0000 C   0  0  0  0  0  0  0  0  0  0  0  0
    3.7568    1.6383    0.0000 C   0  0  0  0  0  0  0  0  0  0  0  0
    2.7818   -0.3862    0.0000 C   0  0  0  0  0  0  0  0  0  0  0  0
    2.7818    1.8608    0.0000 C   0  0  0  0  0  0  0  0  0  0  0  0
    2.0000    0.2373    0.0000 C   0  0  0  0  0  0  0  0  0  0  0  0
    2.0000    1.2373    0.0000 C   0  0  0  0  0  0  0  0  0  0  0  0
    5.1906    0.7373    0.0000 C   0  0  0  0  0  0  0  0  0  0  0  0
    6.6906   -0.1287    0.0000 C   0  0  0  0  0  0  0  0  0  0  0  0
    7.1906   -0.9948    0.0000 C   0  0  0  0  0  0  0  0  0  0  0  0
    7.1906    0.7373    0.0000 C   0  0  0  0  0  0  0  0  0  0  0  0
    8.1906   -0.9948    0.0000 C   0  0  0  0  0  0  0  0  0  0  0  0
    8.1906    0.7373    0.0000 C   0  0  0  0  0  0  0  0  0  0  0  0
    8.6906   -0.1287    0.0000 C   0  0  0  0  0  0  0  0  0  0  0  0
    4.5205    0.2123    0.0000 H   0  0  0  0  0  0  0  0  0  0  0  0
    3.7568   -0.7837    0.0000 H   0  0  0  0  0  0  0  0  0  0  0  0
    4.3612   -0.3016    0.0000 H   0  0  0  0  0  0  0  0  0  0  0  0
    4.3612    1.7762    0.0000 H   0  0  0  0  0  0  0  0  0  0  0  0
    3.7568    2.2583    0.0000 H   0  0  0  0  0  0  0  0  0  0  0  0
    2.2971   -0.7728    0.0000 H   0  0  0  0  0  0  0  0  0  0  0  0
    3.0508   -0.9448    0.0000 H   0  0  0  0  0  0  0  0  0  0  0  0
    3.0508    2.4194    0.0000 H   0  0  0  0  0  0  0  0  0  0  0  0
    2.2971    2.2474    0.0000 H   0  0  0  0  0  0  0  0  0  0  0  0
    1.3955    0.3753    0.0000 H   0  0  0  0  0  0  0  0  0  0  0  0
    1.7310   -0.3213    0.0000 H   0  0  0  0  0  0  0  0  0  0  0  0
    1.7310    1.7959    0.0000 H   0  0  0  0  0  0  0  0  0  0  0  0
    1.3955    1.0993    0.0000 H   0  0  0  0  0  0  0  0  0  0  0  0
    5.3806   -0.6657    0.0000 H   0  0  0  0  0  0  0  0  0  0  0  0
    6.8806   -1.5317    0.0000 H   0  0  0  0  0  0  0  0  0  0  0  0
    6.8806    1.2742    0.0000 H   0  0  0  0  0  0  0  0  0  0  0  0
    8.5006    1.2742    0.0000 H   0  0  0  0  0  0  0  0  0  0  0  0
    9.3106   -0.1287    0.0000 H   0  0  0  0  0  0  0  0  0  0  0  0
  1 15  1  0  0  0  0
  2 11  2  0  0  0  0
  3 11  1  0  0  0  0
  3 12  1  0  0  0  0
  3 31  1  0  0  0  0
  4  5  1  0  0  0  0
  4  6  1  0  0  0  0
  4 11  1  0  0  0  0
  4 18  1  0  0  0  0
  5  7  1  0  0  0  0
  5 19  1  0  0  0  0
  5 20  1  0  0  0  0
  6  8  1  0  0  0  0
  6 21  1  0  0  0  0
  6 22  1  0  0  0  0
  7  9  1  0  0  0  0
  7 23  1  0  0  0  0
  7 24  1  0  0  0  0
  8 10  1  0  0  0  0
  8 25  1  0  0  0  0
  8 26  1  0  0  0  0
  9 10  1  0  0  0  0
  9 27  1  0  0  0  0
  9 28  1  0  0  0  0
 10 29  1  0  0  0  0
 10 30  1  0  0  0  0
 12 13  2  0  0  0  0
 12 14  1  0  0  0  0
 13 15  1  0  0  0  0
 13 32  1  0  0  0  0
 14 16  2  0  0  0  0
 14 33  1  0  0  0  0
 15 17  2  0  0  0  0
 16 17  1  0  0  0  0
 16 34  1  0  0  0  0
 17 35  1  0  0  0  0
M  END
> <PUBCHEM_COMPOUND_CID>
62587947

> <PUBCHEM_COMPOUND_CANONICALIZED>
1

> <PUBCHEM_CACTVS_COMPLEXITY>
249

> <PUBCHEM_CACTVS_HBOND_ACCEPTOR>
1

> <PUBCHEM_CACTVS_HBOND_DONOR>
1

> <PUBCHEM_CACTVS_ROTATABLE_BOND>
2

> <PUBCHEM_CACTVS_SUBSKEYS>
AAADceByIAAAEAAAAAAAAAAAAAAAAAAAAAAwAAAABgAAAAABAAAAHgBQAAABrQiBkAAwwILAAACIACVSUACCAAAhAgQIiAEAZKgIIDLAkZGEIAhglADIyhcYiMCOAAAAAAEAAAAAAAAAAgAAAAAAAAAAAA==

> <PUBCHEM_IUPAC_OPENEYE_NAME>
N-(3-bromophenyl)cycloheptanecarboxamide

> <PUBCHEM_IUPAC_CAS_NAME>
N-(3-bromophenyl)cycloheptanecarboxamide

> <PUBCHEM_IUPAC_NAME>
N-(3-bromophenyl)cycloheptanecarboxamide

> <PUBCHEM_IUPAC_SYSTEMATIC_NAME>
N-(3-bromophenyl)cycloheptanecarboxamide

> <PUBCHEM_IUPAC_TRADITIONAL_NAME>
N-(3-bromophenyl)cycloheptanecarboxamide

> <PUBCHEM_IUPAC_INCHI>
InChI=1S/C14H18BrNO/c15-12-8-5-9-13(10-12)16-14(17)11-6-3-1-2-4-7-11/h5,8-11H,1-4,6-7H2,(H,16,17)

> <PUBCHEM_IUPAC_INCHIKEY>
YBRVVSWGDTUDRY-UHFFFAOYSA-N

> <PUBCHEM_XLOGP3>
4.9

> <PUBCHEM_EXACT_MASS>
295.057176

> <PUBCHEM_MOLECULAR_FORMULA>
C14H18BrNO

> <PUBCHEM_MOLECULAR_WEIGHT>
296.20282

> <PUBCHEM_OPENEYE_CAN_SMILES>
C1CCCC(CC1)C(=O)NC2=CC(=CC=C2)Br

> <PUBCHEM_OPENEYE_ISO_SMILES>
C1CCCC(CC1)C(=O)NC2=CC(=CC=C2)Br

> <PUBCHEM_CACTVS_TPSA>
29.1

> <PUBCHEM_MONOISOTOPIC_WEIGHT>
295.057176

> <PUBCHEM_TOTAL_CHARGE>
0

> <PUBCHEM_HEAVY_ATOM_COUNT>
17

> <PUBCHEM_ATOM_DEF_STEREO_COUNT>
0

> <PUBCHEM_ATOM_UDEF_STEREO_COUNT>
0

> <PUBCHEM_BOND_DEF_STEREO_COUNT>
0

> <PUBCHEM_BOND_UDEF_STEREO_COUNT>
0

> <PUBCHEM_ISOTOPIC_ATOM_COUNT>
0

> <PUBCHEM_COMPONENT_COUNT>
1

> <PUBCHEM_CACTVS_TAUTO_COUNT>
3

> <PUBCHEM_COORDINATE_TYPE>
1
5
255

> <PUBCHEM_BONDANNOTATIONS>
12  13  8
12  14  8
13  15  8
14  16  8
15  17  8
16  17  8

$$$$
62588097
  -OEChem-10231221322D

 38 39  0     0  0  0  0  0  0999 V2000
    9.6906   -0.1287    0.0000 Br  0  0  0  0  0  0  0  0  0  0  0  0
    5.6906    1.6033    0.0000 O   0  0  0  0  0  0  0  0  0  0  0  0
    5.6906   -0.1287    0.0000 N   0  0  0  0  0  0  0  0  0  0  0  0
    4.1906    0.7373    0.0000 C   0  0  0  0  0  0  0  0  0  0  0  0
    3.7568   -0.1637    0.0000 C   0  0  0  0  0  0  0  0  0  0  0  0
    3.7568    1.6383    0.0000 C   0  0  0  0  0  0  0  0  0  0  0  0
    2.7818   -0.3862    0.0000 C   0  0  0  0  0  0  0  0  0  0  0  0
    2.7818    1.8608    0.0000 C   0  0  0  0  0  0  0  0  0  0  0  0
    2.0000    0.2373    0.0000 C   0  0  0  0  0  0  0  0  0  0  0  0
    2.0000    1.2373    0.0000 C   0  0  0  0  0  0  0  0  0  0  0  0
    5.1906    0.7373    0.0000 C   0  0  0  0  0  0  0  0  0  0  0  0
    6.6906   -0.1287    0.0000 C   0  0  0  0  0  0  0  0  0  0  0  0
    7.1906   -0.9948    0.0000 C   0  0  0  0  0  0  0  0  0  0  0  0
    7.1906    0.7373    0.0000 C   0  0  0  0  0  0  0  0  0  0  0  0
    8.1906   -0.9948    0.0000 C   0  0  0  0  0  0  0  0  0  0  0  0
    6.6906   -1.8608    0.0000 C   0  0  0  0  0  0  0  0  0  0  0  0
    8.1906    0.7373    0.0000 C   0  0  0  0  0  0  0  0  0  0  0  0
    8.6906   -0.1287    0.0000 C   0  0  0  0  0  0  0  0  0  0  0  0
    4.5205    0.2123    0.0000 H   0  0  0  0  0  0  0  0  0  0  0  0
    3.7568   -0.7837    0.0000 H   0  0  0  0  0  0  0  0  0  0  0  0
    4.3612   -0.3016    0.0000 H   0  0  0  0  0  0  0  0  0  0  0  0
    4.3612    1.7762    0.0000 H   0  0  0  0  0  0  0  0  0  0  0  0
    3.7568    2.2583    0.0000 H   0  0  0  0  0  0  0  0  0  0  0  0
    2.2971   -0.7728    0.0000 H   0  0  0  0  0  0  0  0  0  0  0  0
    3.0508   -0.9448    0.0000 H   0  0  0  0  0  0  0  0  0  0  0  0
    3.0508    2.4194    0.0000 H   0  0  0  0  0  0  0  0  0  0  0  0
    2.2971    2.2474    0.0000 H   0  0  0  0  0  0  0  0  0  0  0  0
    1.3955    0.3753    0.0000 H   0  0  0  0  0  0  0  0  0  0  0  0
    1.7310   -0.3213    0.0000 H   0  0  0  0  0  0  0  0  0  0  0  0
    1.7310    1.7959    0.0000 H   0  0  0  0  0  0  0  0  0  0  0  0
    1.3955    1.0993    0.0000 H   0  0  0  0  0  0  0  0  0  0  0  0
    5.3806   -0.6657    0.0000 H   0  0  0  0  0  0  0  0  0  0  0  0
    6.8806    1.2742    0.0000 H   0  0  0  0  0  0  0  0  0  0  0  0
    8.5006   -1.5317    0.0000 H   0  0  0  0  0  0  0  0  0  0  0  0
    6.1537   -1.5508    0.0000 H   0  0  0  0  0  0  0  0  0  0  0  0
    6.3806   -2.3977    0.0000 H   0  0  0  0  0  0  0  0  0  0  0  0
    7.2276   -2.1708    0.0000 H   0  0  0  0  0  0  0  0  0  0  0  0
    8.5006    1.2742    0.0000 H   0  0  0  0  0  0  0  0  0  0  0  0
  1 18  1  0  0  0  0
  2 11  2  0  0  0  0
  3 11  1  0  0  0  0
  3 12  1  0  0  0  0
  3 32  1  0  0  0  0
  4  5  1  0  0  0  0
  4  6  1  0  0  0  0
  4 11  1  0  0  0  0
  4 19  1  0  0  0  0
  5  7  1  0  0  0  0
  5 20  1  0  0  0  0
  5 21  1  0  0  0  0
  6  8  1  0  0  0  0
  6 22  1  0  0  0  0
  6 23  1  0  0  0  0
  7  9  1  0  0  0  0
  7 24  1  0  0  0  0
  7 25  1  0  0  0  0
  8 10  1  0  0  0  0
  8 26  1  0  0  0  0
  8 27  1  0  0  0  0
  9 10  1  0  0  0  0
  9 28  1  0  0  0  0
  9 29  1  0  0  0  0
 10 30  1  0  0  0  0
 10 31  1  0  0  0  0
 12 13  2  0  0  0  0
 12 14  1  0  0  0  0
 13 15  1  0  0  0  0
 13 16  1  0  0  0  0
 14 17  2  0  0  0  0
 14 33  1  0  0  0  0
 15 18  2  0  0  0  0
 15 34  1  0  0  0  0
 16 35  1  0  0  0  0
 16 36  1  0  0  0  0
 16 37  1  0  0  0  0
 17 18  1  0  0  0  0
 17 38  1  0  0  0  0
M  END
> <PUBCHEM_COMPOUND_CID>
62588097

> <PUBCHEM_COMPOUND_CANONICALIZED>
1

> <PUBCHEM_CACTVS_COMPLEXITY>
274

> <PUBCHEM_CACTVS_HBOND_ACCEPTOR>
1

> <PUBCHEM_CACTVS_HBOND_DONOR>
1

> <PUBCHEM_CACTVS_ROTATABLE_BOND>
2

> <PUBCHEM_CACTVS_SUBSKEYS>
AAADceByIAAAEAAAAAAAAAAAAAAAAAAAAAAwAAAABgAAAAABAAAAHgBQAAABrQiBmAAywILAAACIAiVSUACCAAAhAgQIiAEAZKgIIDLAkZGEIAhglADIyhcYiMCOAAAgEAACAAAAAEAgAAQAAAAAAAAAAA==

> <PUBCHEM_IUPAC_OPENEYE_NAME>
N-(4-bromo-2-methyl-phenyl)cycloheptanecarboxamide

> <PUBCHEM_IUPAC_CAS_NAME>
N-(4-bromo-2-methylphenyl)cycloheptanecarboxamide

> <PUBCHEM_IUPAC_NAME>
N-(4-bromo-2-methylphenyl)cycloheptanecarboxamide

> <PUBCHEM_IUPAC_SYSTEMATIC_NAME>
N-(4-bromanyl-2-methyl-phenyl)cycloheptanecarboxamide

> <PUBCHEM_IUPAC_TRADITIONAL_NAME>
N-(4-bromo-2-methyl-phenyl)cycloheptanecarboxamide

> <PUBCHEM_IUPAC_INCHI>
InChI=1S/C15H20BrNO/c1-11-10-13(16)8-9-14(11)17-15(18)12-6-4-2-3-5-7-12/h8-10,12H,2-7H2,1H3,(H,17,18)

> <PUBCHEM_IUPAC_INCHIKEY>
MAPCPWREFXLSHM-UHFFFAOYSA-N

> <PUBCHEM_XLOGP3>
4.7

> <PUBCHEM_EXACT_MASS>
309.072826

> <PUBCHEM_MOLECULAR_FORMULA>
C15H20BrNO

> <PUBCHEM_MOLECULAR_WEIGHT>
310.2294

> <PUBCHEM_OPENEYE_CAN_SMILES>
CC1=C(C=CC(=C1)Br)NC(=O)C2CCCCCC2

> <PUBCHEM_OPENEYE_ISO_SMILES>
CC1=C(C=CC(=C1)Br)NC(=O)C2CCCCCC2

> <PUBCHEM_CACTVS_TPSA>
29.1

> <PUBCHEM_MONOISOTOPIC_WEIGHT>
309.072826

> <PUBCHEM_TOTAL_CHARGE>
0

> <PUBCHEM_HEAVY_ATOM_COUNT>
18

> <PUBCHEM_ATOM_DEF_STEREO_COUNT>
0

> <PUBCHEM_ATOM_UDEF_STEREO_COUNT>
0

> <PUBCHEM_BOND_DEF_STEREO_COUNT>
0

> <PUBCHEM_BOND_UDEF_STEREO_COUNT>
0

> <PUBCHEM_ISOTOPIC_ATOM_COUNT>
0

> <PUBCHEM_COMPONENT_COUNT>
1

> <PUBCHEM_CACTVS_TAUTO_COUNT>
3

> <PUBCHEM_COORDINATE_TYPE>
1
5
255

> <PUBCHEM_BONDANNOTATIONS>
12  13  8
12  14  8
13  15  8
14  17  8
15  18  8
17  18  8

$$$$
62588099
  -OEChem-10231221322D

 38 39  0     0  0  0  0  0  0999 V2000
    8.6906    1.6033    0.0000 Br  0  0  0  0  0  0  0  0  0  0  0  0
    5.6906    1.6033    0.0000 O   0  0  0  0  0  0  0  0  0  0  0  0
    5.6906   -0.1287    0.0000 N   0  0  0  0  0  0  0  0  0  0  0  0
    4.1906    0.7373    0.0000 C   0  0  0  0  0  0  0  0  0  0  0  0
    3.7568   -0.1637    0.0000 C   0  0  0  0  0  0  0  0  0  0  0  0
    3.7568    1.6383    0.0000 C   0  0  0  0  0  0  0  0  0  0  0  0
    2.7818   -0.3862    0.0000 C   0  0  0  0  0  0  0  0  0  0  0  0
    2.7818    1.8608    0.0000 C   0  0  0  0  0  0  0  0  0  0  0  0
    2.0000    0.2373    0.0000 C   0  0  0  0  0  0  0  0  0  0  0  0
    2.0000    1.2373    0.0000 C   0  0  0  0  0  0  0  0  0  0  0  0
    5.1906    0.7373    0.0000 C   0  0  0  0  0  0  0  0  0  0  0  0
    6.6906   -0.1287    0.0000 C   0  0  0  0  0  0  0  0  0  0  0  0
    7.1906   -0.9948    0.0000 C   0  0  0  0  0  0  0  0  0  0  0  0
    7.1906    0.7373    0.0000 C   0  0  0  0  0  0  0  0  0  0  0  0
    8.1906   -0.9948    0.0000 C   0  0  0  0  0  0  0  0  0  0  0  0
    6.6906   -1.8608    0.0000 C   0  0  0  0  0  0  0  0  0  0  0  0
    8.1906    0.7373    0.0000 C   0  0  0  0  0  0  0  0  0  0  0  0
    8.6906   -0.1287    0.0000 C   0  0  0  0  0  0  0  0  0  0  0  0
    4.5205    0.2123    0.0000 H   0  0  0  0  0  0  0  0  0  0  0  0
    3.7568   -0.7837    0.0000 H   0  0  0  0  0  0  0  0  0  0  0  0
    4.3612   -0.3016    0.0000 H   0  0  0  0  0  0  0  0  0  0  0  0
    4.3612    1.7762    0.0000 H   0  0  0  0  0  0  0  0  0  0  0  0
    3.7568    2.2583    0.0000 H   0  0  0  0  0  0  0  0  0  0  0  0
    2.2971   -0.7728    0.0000 H   0  0  0  0  0  0  0  0  0  0  0  0
    3.0508   -0.9448    0.0000 H   0  0  0  0  0  0  0  0  0  0  0  0
    3.0508    2.4194    0.0000 H   0  0  0  0  0  0  0  0  0  0  0  0
    2.2971    2.2474    0.0000 H   0  0  0  0  0  0  0  0  0  0  0  0
    1.3955    0.3753    0.0000 H   0  0  0  0  0  0  0  0  0  0  0  0
    1.7310   -0.3213    0.0000 H   0  0  0  0  0  0  0  0  0  0  0  0
    1.7310    1.7959    0.0000 H   0  0  0  0  0  0  0  0  0  0  0  0
    1.3955    1.0993    0.0000 H   0  0  0  0  0  0  0  0  0  0  0  0
    5.3806   -0.6657    0.0000 H   0  0  0  0  0  0  0  0  0  0  0  0
    6.8806    1.2742    0.0000 H   0  0  0  0  0  0  0  0  0  0  0  0
    8.5006   -1.5317    0.0000 H   0  0  0  0  0  0  0  0  0  0  0  0
    6.1537   -1.5508    0.0000 H   0  0  0  0  0  0  0  0  0  0  0  0
    6.3806   -2.3977    0.0000 H   0  0  0  0  0  0  0  0  0  0  0  0
    7.2276   -2.1708    0.0000 H   0  0  0  0  0  0  0  0  0  0  0  0
    9.3106   -0.1287    0.0000 H   0  0  0  0  0  0  0  0  0  0  0  0
  1 17  1  0  0  0  0
  2 11  2  0  0  0  0
  3 11  1  0  0  0  0
  3 12  1  0  0  0  0
  3 32  1  0  0  0  0
  4  5  1  0  0  0  0
  4  6  1  0  0  0  0
  4 11  1  0  0  0  0
  4 19  1  0  0  0  0
  5  7  1  0  0  0  0
  5 20  1  0  0  0  0
  5 21  1  0  0  0  0
  6  8  1  0  0  0  0
  6 22  1  0  0  0  0
  6 23  1  0  0  0  0
  7  9  1  0  0  0  0
  7 24  1  0  0  0  0
  7 25  1  0  0  0  0
  8 10  1  0  0  0  0
  8 26  1  0  0  0  0
  8 27  1  0  0  0  0
  9 10  1  0  0  0  0
  9 28  1  0  0  0  0
  9 29  1  0  0  0  0
 10 30  1  0  0  0  0
 10 31  1  0  0  0  0
 12 13  2  0  0  0  0
 12 14  1  0  0  0  0
 13 15  1  0  0  0  0
 13 16  1  0  0  0  0
 14 17  2  0  0  0  0
 14 33  1  0  0  0  0
 15 18  2  0  0  0  0
 15 34  1  0  0  0  0
 16 35  1  0  0  0  0
 16 36  1  0  0  0  0
 16 37  1  0  0  0  0
 17 18  1  0  0  0  0
 18 38  1  0  0  0  0
M  END
> <PUBCHEM_COMPOUND_CID>
62588099

> <PUBCHEM_COMPOUND_CANONICALIZED>
1

> <PUBCHEM_CACTVS_COMPLEXITY>
274

> <PUBCHEM_CACTVS_HBOND_ACCEPTOR>
1

> <PUBCHEM_CACTVS_HBOND_DONOR>
1

> <PUBCHEM_CACTVS_ROTATABLE_BOND>
2

> <PUBCHEM_CACTVS_SUBSKEYS>
AAADceByIAAAEAAAAAAAAAAAAAAAAAAAAAAwAAAABgAAAAABAAAAHgBQAAABrQiBmAAywILAAACIAiVSUACCAAAhAgQIiAEAZKgIIDLAkZGEIAhglADIyhcYiMCOAgAAAAECAAAEAAAAAgQAAAAAAAAAAA==

> <PUBCHEM_IUPAC_OPENEYE_NAME>
N-(5-bromo-2-methyl-phenyl)cycloheptanecarboxamide

> <PUBCHEM_IUPAC_CAS_NAME>
N-(5-bromo-2-methylphenyl)cycloheptanecarboxamide

> <PUBCHEM_IUPAC_NAME>
N-(5-bromo-2-methylphenyl)cycloheptanecarboxamide

> <PUBCHEM_IUPAC_SYSTEMATIC_NAME>
N-(5-bromanyl-2-methyl-phenyl)cycloheptanecarboxamide

> <PUBCHEM_IUPAC_TRADITIONAL_NAME>
N-(5-bromo-2-methyl-phenyl)cycloheptanecarboxamide

> <PUBCHEM_IUPAC_INCHI>
InChI=1S/C15H20BrNO/c1-11-8-9-13(16)10-14(11)17-15(18)12-6-4-2-3-5-7-12/h8-10,12H,2-7H2,1H3,(H,17,18)

> <PUBCHEM_IUPAC_INCHIKEY>
IRBUQWSRDHJFGX-UHFFFAOYSA-N

> <PUBCHEM_XLOGP3>
4.5

> <PUBCHEM_EXACT_MASS>
309.072826

> <PUBCHEM_MOLECULAR_FORMULA>
C15H20BrNO

> <PUBCHEM_MOLECULAR_WEIGHT>
310.2294

> <PUBCHEM_OPENEYE_CAN_SMILES>
CC1=C(C=C(C=C1)Br)NC(=O)C2CCCCCC2

> <PUBCHEM_OPENEYE_ISO_SMILES>
CC1=C(C=C(C=C1)Br)NC(=O)C2CCCCCC2

> <PUBCHEM_CACTVS_TPSA>
29.1

> <PUBCHEM_MONOISOTOPIC_WEIGHT>
309.072826

> <PUBCHEM_TOTAL_CHARGE>
0

> <PUBCHEM_HEAVY_ATOM_COUNT>
18

> <PUBCHEM_ATOM_DEF_STEREO_COUNT>
0

> <PUBCHEM_ATOM_UDEF_STEREO_COUNT>
0

> <PUBCHEM_BOND_DEF_STEREO_COUNT>
0

> <PUBCHEM_BOND_UDEF_STEREO_COUNT>
0

> <PUBCHEM_ISOTOPIC_ATOM_COUNT>
0

> <PUBCHEM_COMPONENT_COUNT>
1

> <PUBCHEM_CACTVS_TAUTO_COUNT>
3

> <PUBCHEM_COORDINATE_TYPE>
1
5
255

> <PUBCHEM_BONDANNOTATIONS>
12  13  8
12  14  8
13  15  8
14  17  8
15  18  8
17  18  8

$$$$
