37029846
  -OEChem-10191221462D

 38 38  0     0  0  0  0  0  0999 V2000
    4.5332   -1.8045    0.0000 N   0  3  0  0  0  0  0  0  0  0  0  0
    5.9187    1.8487    0.0000 N   0  3  0  0  0  0  0  0  0  0  0  0
    2.5797    1.0257    0.0000 N   0  0  0  0  0  0  0  0  0  0  0  0
    6.2527   -0.9020    0.0000 C   0  0  0  0  0  0  0  0  0  0  0  0
    6.6073    0.0330    0.0000 C   0  0  0  0  0  0  0  0  0  0  0  0
    5.5042   -1.5652    0.0000 C   0  0  0  0  0  0  0  0  0  0  0  0
    6.4868    1.0257    0.0000 C   0  0  0  0  0  0  0  0  0  0  0  0
    3.5623   -1.5652    0.0000 C   0  0  0  0  0  0  0  0  0  0  0  0
    5.0332    2.3134    0.0000 C   0  0  0  0  0  0  0  0  0  0  0  0
    2.8138   -0.9020    0.0000 C   0  0  0  0  0  0  0  0  0  0  0  0
    4.0332    2.3134    0.0000 C   0  0  0  0  0  0  0  0  0  0  0  0
    2.4592    0.0330    0.0000 C   0  0  0  0  0  0  0  0  0  0  0  0
    3.1478    1.8487    0.0000 C   0  0  0  0  0  0  0  0  0  0  0  0
    7.0714   -0.3782    0.0000 H   0  0  0  0  0  0  0  0  0  0  0  0
    5.9918    0.1077    0.0000 H   0  0  0  0  0  0  0  0  0  0  0  0
    6.4725   -1.4817    0.0000 H   0  0  0  0  0  0  0  0  0  0  0  0
    5.7424   -0.5498    0.0000 H   0  0  0  0  0  0  0  0  0  0  0  0
    5.4294   -2.1806    0.0000 H   0  0  0  0  0  0  0  0  0  0  0  0
    5.2160   -1.0162    0.0000 H   0  0  0  0  0  0  0  0  0  0  0  0
    7.0887    0.8773    0.0000 H   0  0  0  0  0  0  0  0  0  0  0  0
    5.9070    0.8058    0.0000 H   0  0  0  0  0  0  0  0  0  0  0  0
    6.1957    2.4034    0.0000 H   0  0  0  0  0  0  0  0  0  0  0  0
    6.5376    1.8861    0.0000 H   0  0  0  0  0  0  0  0  0  0  0  0
    4.3728   -2.4034    0.0000 H   0  0  0  0  0  0  0  0  0  0  0  0
    4.9716   -2.2429    0.0000 H   0  0  0  0  0  0  0  0  0  0  0  0
    3.0133   -1.8533    0.0000 H   0  0  0  0  0  0  0  0  0  0  0  0
    3.8504   -1.0162    0.0000 H   0  0  0  0  0  0  0  0  0  0  0  0
    5.4973    2.7245    0.0000 H   0  0  0  0  0  0  0  0  0  0  0  0
    4.8849    1.7114    0.0000 H   0  0  0  0  0  0  0  0  0  0  0  0
    2.1938   -0.9020    0.0000 H   0  0  0  0  0  0  0  0  0  0  0  0
    3.3240   -0.5498    0.0000 H   0  0  0  0  0  0  0  0  0  0  0  0
    4.2531    2.8931    0.0000 H   0  0  0  0  0  0  0  0  0  0  0  0
    4.1816    1.7114    0.0000 H   0  0  0  0  0  0  0  0  0  0  0  0
    3.0730    2.4642    0.0000 H   0  0  0  0  0  0  0  0  0  0  0  0
    3.5589    1.3846    0.0000 H   0  0  0  0  0  0  0  0  0  0  0  0
    1.9102    0.3211    0.0000 H   0  0  0  0  0  0  0  0  0  0  0  0
    3.0746    0.1077    0.0000 H   0  0  0  0  0  0  0  0  0  0  0  0
    2.0000    1.2456    0.0000 H   0  0  0  0  0  0  0  0  0  0  0  0
  1  6  1  0  0  0  0
  1  8  1  0  0  0  0
  1 24  1  0  0  0  0
  1 25  1  0  0  0  0
  2  7  1  0  0  0  0
  2  9  1  0  0  0  0
  2 22  1  0  0  0  0
  2 23  1  0  0  0  0
  3 12  1  0  0  0  0
  3 13  1  0  0  0  0
  3 38  1  0  0  0  0
  4  5  1  0  0  0  0
  4  6  1  0  0  0  0
  4 16  1  0  0  0  0
  4 17  1  0  0  0  0
  5  7  1  0  0  0  0
  5 14  1  0  0  0  0
  5 15  1  0  0  0  0
  6 18  1  0  0  0  0
  6 19  1  0  0  0  0
  7 20  1  0  0  0  0
  7 21  1  0  0  0  0
  8 10  1  0  0  0  0
  8 26  1  0  0  0  0
  8 27  1  0  0  0  0
  9 11  1  0  0  0  0
  9 28  1  0  0  0  0
  9 29  1  0  0  0  0
 10 12  1  0  0  0  0
 10 30  1  0  0  0  0
 10 31  1  0  0  0  0
 11 13  1  0  0  0  0
 11 32  1  0  0  0  0
 11 33  1  0  0  0  0
 12 36  1  0  0  0  0
 12 37  1  0  0  0  0
 13 34  1  0  0  0  0
 13 35  1  0  0  0  0
M  CHG  2   1   1   2   1
M  END
> <PUBCHEM_COMPOUND_CID>
37029846

> <PUBCHEM_COMPOUND_CANONICALIZED>
1

> <PUBCHEM_CACTVS_COMPLEXITY>
94.3

> <PUBCHEM_CACTVS_HBOND_ACCEPTOR>
1

> <PUBCHEM_CACTVS_HBOND_DONOR>
3

> <PUBCHEM_CACTVS_ROTATABLE_BOND>
0

> <PUBCHEM_CACTVS_SUBSKEYS>
AAADceBzAAAAAAAAAAAAAAAAAAAAAAAAAAAAAAAAAAAAAAAAAAAAHAAQAAAACADBAAQAAALAAAAAAAAAAAAAAAAAAAAAAIAIAAAAAAAAwAAEAAAAEACAAAAAAAAAAAAAAAAAAAAAAAAAAAAAAAAAAAAAAA==

> <PUBCHEM_IUPAC_OPENEYE_NAME>
5-aza-1,9-diazoniacyclotridecane

> <PUBCHEM_IUPAC_CAS_NAME>
5-aza-1,9-diazoniacyclotridecane

> <PUBCHEM_IUPAC_NAME>
5-aza-1,9-diazoniacyclotridecane

> <PUBCHEM_IUPAC_SYSTEMATIC_NAME>
5-aza-1,9-diazoniacyclotridecane

> <PUBCHEM_IUPAC_TRADITIONAL_NAME>
5-aza-1,9-diazoniacyclotridecane

> <PUBCHEM_IUPAC_INCHI>
InChI=1S/C10H23N3/c1-2-6-12-8-4-10-13-9-3-7-11-5-1/h11-13H,1-10H2/p+2

> <PUBCHEM_IUPAC_INCHIKEY>
UXABFDDIKPVEBR-UHFFFAOYSA-P

> <PUBCHEM_XLOGP3>
0.3

> <PUBCHEM_EXACT_MASS>
187.204848

> <PUBCHEM_MOLECULAR_FORMULA>
C10H25N3+2

> <PUBCHEM_MOLECULAR_WEIGHT>
187.3256

> <PUBCHEM_OPENEYE_CAN_SMILES>
C1CC[NH2+]CCCNCCC[NH2+]C1

> <PUBCHEM_OPENEYE_ISO_SMILES>
C1CC[NH2+]CCCNCCC[NH2+]C1

> <PUBCHEM_CACTVS_TPSA>
45.2

> <PUBCHEM_MONOISOTOPIC_WEIGHT>
187.204848

> <PUBCHEM_TOTAL_CHARGE>
2

> <PUBCHEM_HEAVY_ATOM_COUNT>
13

> <PUBCHEM_ATOM_DEF_STEREO_COUNT>
0

> <PUBCHEM_ATOM_UDEF_STEREO_COUNT>
0

> <PUBCHEM_BOND_DEF_STEREO_COUNT>
0

> <PUBCHEM_BOND_UDEF_STEREO_COUNT>
0

> <PUBCHEM_ISOTOPIC_ATOM_COUNT>
0

> <PUBCHEM_COMPONENT_COUNT>
1

> <PUBCHEM_CACTVS_TAUTO_COUNT>
1

> <PUBCHEM_COORDINATE_TYPE>
1
5
255

$$$$
37040987
  -OEChem-10191221462D

 49 51  0     0  0  0  0  0  0999 V2000
    5.4641    3.2500    0.0000 S   0  0  0  0  0  0  0  0  0  0  0  0
    8.9282    5.2500    0.0000 F   0  0  0  0  0  0  0  0  0  0  0  0
    9.7942   -5.2500    0.0000 F   0  0  0  0  0  0  0  0  0  0  0  0
   10.7942   -4.2500    0.0000 F   0  0  0  0  0  0  0  0  0  0  0  0
    8.7942   -4.2500    0.0000 F   0  0  0  0  0  0  0  0  0  0  0  0
    2.8660    1.7500    0.0000 O   0  0  0  0  0  0  0  0  0  0  0  0
    4.9641    4.1160    0.0000 O   0  0  0  0  0  0  0  0  0  0  0  0
    5.9641    2.3840    0.0000 O   0  0  0  0  0  0  0  0  0  0  0  0
    5.4641   -1.7500    0.0000 O   0  0  0  0  0  0  0  0  0  0  0  0
    9.7942   -3.2500    0.0000 O   0  0  0  0  0  0  0  0  0  0  0  0
    4.5981    2.7500    0.0000 N   0  0  0  0  0  0  0  0  0  0  0  0
    6.3301   -0.2500    0.0000 N   0  0  0  0  0  0  0  0  0  0  0  0
    4.5981    1.7500    0.0000 C   0  0  0  0  0  0  0  0  0  0  0  0
    5.4641    0.2500    0.0000 C   0  0  0  0  0  0  0  0  0  0  0  0
    6.3301    3.7500    0.0000 C   0  0  0  0  0  0  0  0  0  0  0  0
    5.4641    1.2500    0.0000 C   0  0  0  0  0  0  0  0  0  0  0  0
    3.7320    1.2500    0.0000 C   0  0  0  0  0  0  0  0  0  0  0  0
    4.5981   -0.2500    0.0000 C   0  0  0  0  0  0  0  0  0  0  0  0
    3.7320    0.2500    0.0000 C   0  0  0  0  0  0  0  0  0  0  0  0
    7.1962    3.2500    0.0000 C   0  0  0  0  0  0  0  0  0  0  0  0
    6.3301    4.7500    0.0000 C   0  0  0  0  0  0  0  0  0  0  0  0
    6.3301   -1.2500    0.0000 C   0  0  0  0  0  0  0  0  0  0  0  0
    7.1962   -1.7500    0.0000 C   0  0  0  0  0  0  0  0  0  0  0  0
    8.0622    3.7500    0.0000 C   0  0  0  0  0  0  0  0  0  0  0  0
    7.1962    5.2500    0.0000 C   0  0  0  0  0  0  0  0  0  0  0  0
    8.0622    4.7500    0.0000 C   0  0  0  0  0  0  0  0  0  0  0  0
    7.1962   -2.7500    0.0000 C   0  0  0  0  0  0  0  0  0  0  0  0
    8.0622   -1.2500    0.0000 C   0  0  0  0  0  0  0  0  0  0  0  0
    8.9282   -2.7500    0.0000 C   0  0  0  0  0  0  0  0  0  0  0  0
    8.0622   -3.2500    0.0000 C   0  0  0  0  0  0  0  0  0  0  0  0
    8.9282   -1.7500    0.0000 C   0  0  0  0  0  0  0  0  0  0  0  0
    2.0000    1.2500    0.0000 C   0  0  0  0  0  0  0  0  0  0  0  0
    9.7942   -4.2500    0.0000 C   0  0  0  0  0  0  0  0  0  0  0  0
    4.0611    3.0600    0.0000 H   0  0  0  0  0  0  0  0  0  0  0  0
    6.0010    1.5600    0.0000 H   0  0  0  0  0  0  0  0  0  0  0  0
    4.5981   -0.8700    0.0000 H   0  0  0  0  0  0  0  0  0  0  0  0
    3.1951   -0.0600    0.0000 H   0  0  0  0  0  0  0  0  0  0  0  0
    6.8671    0.0600    0.0000 H   0  0  0  0  0  0  0  0  0  0  0  0
    7.1962    2.6300    0.0000 H   0  0  0  0  0  0  0  0  0  0  0  0
    5.7932    5.0600    0.0000 H   0  0  0  0  0  0  0  0  0  0  0  0
    8.5991    3.4400    0.0000 H   0  0  0  0  0  0  0  0  0  0  0  0
    7.1962    5.8700    0.0000 H   0  0  0  0  0  0  0  0  0  0  0  0
    6.6592   -3.0600    0.0000 H   0  0  0  0  0  0  0  0  0  0  0  0
    8.0622   -0.6300    0.0000 H   0  0  0  0  0  0  0  0  0  0  0  0
    8.0622   -3.8700    0.0000 H   0  0  0  0  0  0  0  0  0  0  0  0
    9.4651   -1.4400    0.0000 H   0  0  0  0  0  0  0  0  0  0  0  0
    1.6900    1.7869    0.0000 H   0  0  0  0  0  0  0  0  0  0  0  0
    1.4631    0.9400    0.0000 H   0  0  0  0  0  0  0  0  0  0  0  0
    2.3100    0.7131    0.0000 H   0  0  0  0  0  0  0  0  0  0  0  0
  1  7  2  0  0  0  0
  1  8  2  0  0  0  0
  1 11  1  0  0  0  0
  1 15  1  0  0  0  0
  2 26  1  0  0  0  0
  3 33  1  0  0  0  0
  4 33  1  0  0  0  0
  5 33  1  0  0  0  0
  6 17  1  0  0  0  0
  6 32  1  0  0  0  0
  9 22  2  0  0  0  0
 10 29  1  0  0  0  0
 10 33  1  0  0  0  0
 11 13  1  0  0  0  0
 11 34  1  0  0  0  0
 12 14  1  0  0  0  0
 12 22  1  0  0  0  0
 12 38  1  0  0  0  0
 13 16  1  0  0  0  0
 13 17  2  0  0  0  0
 14 16  2  0  0  0  0
 14 18  1  0  0  0  0
 15 20  2  0  0  0  0
 15 21  1  0  0  0  0
 16 35  1  0  0  0  0
 17 19  1  0  0  0  0
 18 19  2  0  0  0  0
 18 36  1  0  0  0  0
 19 37  1  0  0  0  0
 20 24  1  0  0  0  0
 20 39  1  0  0  0  0
 21 25  2  0  0  0  0
 21 40  1  0  0  0  0
 22 23  1  0  0  0  0
 23 27  2  0  0  0  0
 23 28  1  0  0  0  0
 24 26  2  0  0  0  0
 24 41  1  0  0  0  0
 25 26  1  0  0  0  0
 25 42  1  0  0  0  0
 27 30  1  0  0  0  0
 27 43  1  0  0  0  0
 28 31  2  0  0  0  0
 28 44  1  0  0  0  0
 29 30  2  0  0  0  0
 29 31  1  0  0  0  0
 30 45  1  0  0  0  0
 31 46  1  0  0  0  0
 32 47  1  0  0  0  0
 32 48  1  0  0  0  0
 32 49  1  0  0  0  0
M  END
> <PUBCHEM_COMPOUND_CID>
37040987

> <PUBCHEM_COMPOUND_CANONICALIZED>
1

> <PUBCHEM_CACTVS_COMPLEXITY>
745

> <PUBCHEM_CACTVS_HBOND_ACCEPTOR>
10

> <PUBCHEM_CACTVS_HBOND_DONOR>
2

> <PUBCHEM_CACTVS_ROTATABLE_BOND>
7

> <PUBCHEM_CACTVS_SUBSKEYS>
AAADceB7OcBAAAAAAAAAAAAAAAAAAAAAAAAwYMAAAAAAAAABUAAAHwQQQAAADAyB2Boyx4LABAKIAiVSUHDCCBAlIgAIiBkHbMgOJjLE9duFMShk1BHI6Ye43ALOIEAAAAQAEABAgAAACAAgAAAAAAAAAA==

> <PUBCHEM_IUPAC_OPENEYE_NAME>
N-[3-[(4-fluorophenyl)sulfonylamino]-4-methoxy-phenyl]-4-(trifluoromethoxy)benzamide

> <PUBCHEM_IUPAC_CAS_NAME>
N-[3-[(4-fluorophenyl)sulfonylamino]-4-methoxyphenyl]-4-(trifluoromethoxy)benzamide

> <PUBCHEM_IUPAC_NAME>
N-[3-[(4-fluorophenyl)sulfonylamino]-4-methoxyphenyl]-4-(trifluoromethoxy)benzamide

> <PUBCHEM_IUPAC_SYSTEMATIC_NAME>
N-[3-[(4-fluorophenyl)sulfonylamino]-4-methoxy-phenyl]-4-(trifluoromethyloxy)benzamide

> <PUBCHEM_IUPAC_TRADITIONAL_NAME>
N-[3-[(4-fluorophenyl)sulfonylamino]-4-methoxy-phenyl]-4-(trifluoromethoxy)benzamide

> <PUBCHEM_IUPAC_INCHI>
InChI=1S/C21H16F4N2O5S/c1-31-19-11-6-15(12-18(19)27-33(29,30)17-9-4-14(22)5-10-17)26-20(28)13-2-7-16(8-3-13)32-21(23,24)25/h2-12,27H,1H3,(H,26,28)

> <PUBCHEM_IUPAC_INCHIKEY>
DDZQTKRIRAMRTI-UHFFFAOYSA-N

> <PUBCHEM_XLOGP3>
4.4

> <PUBCHEM_EXACT_MASS>
484.071606

> <PUBCHEM_MOLECULAR_FORMULA>
C21H16F4N2O5S

> <PUBCHEM_MOLECULAR_WEIGHT>
484.420753

> <PUBCHEM_OPENEYE_CAN_SMILES>
COC1=C(C=C(C=C1)NC(=O)C2=CC=C(C=C2)OC(F)(F)F)NS(=O)(=O)C3=CC=C(C=C3)F

> <PUBCHEM_OPENEYE_ISO_SMILES>
COC1=C(C=C(C=C1)NC(=O)C2=CC=C(C=C2)OC(F)(F)F)NS(=O)(=O)C3=CC=C(C=C3)F

> <PUBCHEM_CACTVS_TPSA>
102

> <PUBCHEM_MONOISOTOPIC_WEIGHT>
484.071606

> <PUBCHEM_TOTAL_CHARGE>
0

> <PUBCHEM_HEAVY_ATOM_COUNT>
33

> <PUBCHEM_ATOM_DEF_STEREO_COUNT>
0

> <PUBCHEM_ATOM_UDEF_STEREO_COUNT>
0

> <PUBCHEM_BOND_DEF_STEREO_COUNT>
0

> <PUBCHEM_BOND_UDEF_STEREO_COUNT>
0

> <PUBCHEM_ISOTOPIC_ATOM_COUNT>
0

> <PUBCHEM_COMPONENT_COUNT>
1

> <PUBCHEM_CACTVS_TAUTO_COUNT>
2

> <PUBCHEM_COORDINATE_TYPE>
1
5
255

> <PUBCHEM_BONDANNOTATIONS>
13  16  8
13  17  8
14  16  8
14  18  8
15  20  8
15  21  8
17  19  8
18  19  8
20  24  8
21  25  8
23  27  8
23  28  8
24  26  8
25  26  8
27  30  8
28  31  8
29  30  8
29  31  8

$$$$
