56800557
  -OEChem-11301218102D

 41 43  0     1  0  0  0  0  0999 V2000
    4.5981    1.3170    0.0000 N   0  0  3  0  0  0  0  0  0  0  0  0
    5.4641    2.8170    0.0000 C   0  0  0  0  0  0  0  0  0  0  0  0
    3.7320    2.8170    0.0000 C   0  0  0  0  0  0  0  0  0  0  0  0
    4.5981    2.3170    0.0000 C   0  0  0  0  0  0  0  0  0  0  0  0
    6.4641    2.8170    0.0000 C   0  0  0  0  0  0  0  0  0  0  0  0
    5.9641    3.6830    0.0000 C   0  0  0  0  0  0  0  0  0  0  0  0
    3.2320    3.6830    0.0000 C   0  0  0  0  0  0  0  0  0  0  0  0
    2.7320    2.8170    0.0000 C   0  0  0  0  0  0  0  0  0  0  0  0
    3.7320    0.8170    0.0000 C   0  0  0  0  0  0  0  0  0  0  0  0
    5.4641    0.8170    0.0000 C   0  0  0  0  0  0  0  0  0  0  0  0
    3.7320   -0.1830    0.0000 C   0  0  0  0  0  0  0  0  0  0  0  0
    2.8660   -0.6830    0.0000 C   0  0  0  0  0  0  0  0  0  0  0  0
    2.8660   -1.6830    0.0000 C   0  0  0  0  0  0  0  0  0  0  0  0
    3.7320   -2.1830    0.0000 C   0  0  0  0  0  0  0  0  0  0  0  0
    2.0000   -2.1830    0.0000 C   0  0  0  0  0  0  0  0  0  0  0  0
    3.7320   -3.1830    0.0000 C   0  0  0  0  0  0  0  0  0  0  0  0
    2.0000   -3.1830    0.0000 C   0  0  0  0  0  0  0  0  0  0  0  0
    2.8660   -3.6830    0.0000 C   0  0  0  0  0  0  0  0  0  0  0  0
    5.6246    2.2181    0.0000 H   0  0  0  0  0  0  0  0  0  0  0  0
    3.5716    2.2181    0.0000 H   0  0  0  0  0  0  0  0  0  0  0  0
    5.1350    2.0070    0.0000 H   0  0  0  0  0  0  0  0  0  0  0  0
    6.5718    2.2064    0.0000 H   0  0  0  0  0  0  0  0  0  0  0  0
    7.0467    3.0290    0.0000 H   0  0  0  0  0  0  0  0  0  0  0  0
    6.4390    4.0815    0.0000 H   0  0  0  0  0  0  0  0  0  0  0  0
    5.4892    4.0815    0.0000 H   0  0  0  0  0  0  0  0  0  0  0  0
    3.7070    4.0815    0.0000 H   0  0  0  0  0  0  0  0  0  0  0  0
    2.7571    4.0815    0.0000 H   0  0  0  0  0  0  0  0  0  0  0  0
    2.1494    3.0290    0.0000 H   0  0  0  0  0  0  0  0  0  0  0  0
    2.6244    2.2064    0.0000 H   0  0  0  0  0  0  0  0  0  0  0  0
    3.5200    1.3996    0.0000 H   0  0  0  0  0  0  0  0  0  0  0  0
    3.1215    0.7093    0.0000 H   0  0  0  0  0  0  0  0  0  0  0  0
    5.1541    0.2801    0.0000 H   0  0  0  0  0  0  0  0  0  0  0  0
    6.0010    0.5070    0.0000 H   0  0  0  0  0  0  0  0  0  0  0  0
    5.7741    1.3539    0.0000 H   0  0  0  0  0  0  0  0  0  0  0  0
    4.2690   -0.4930    0.0000 H   0  0  0  0  0  0  0  0  0  0  0  0
    2.3291   -0.3730    0.0000 H   0  0  0  0  0  0  0  0  0  0  0  0
    4.2690   -1.8730    0.0000 H   0  0  0  0  0  0  0  0  0  0  0  0
    1.4631   -1.8730    0.0000 H   0  0  0  0  0  0  0  0  0  0  0  0
    4.2690   -3.4930    0.0000 H   0  0  0  0  0  0  0  0  0  0  0  0
    1.4631   -3.4930    0.0000 H   0  0  0  0  0  0  0  0  0  0  0  0
    2.8660   -4.3030    0.0000 H   0  0  0  0  0  0  0  0  0  0  0  0
  1  4  1  0  0  0  0
  1  9  1  0  0  0  0
  1 10  1  0  0  0  0
  2  4  1  0  0  0  0
  2  5  1  0  0  0  0
  2  6  1  0  0  0  0
  2 19  1  0  0  0  0
  3  4  1  0  0  0  0
  3  7  1  0  0  0  0
  3  8  1  0  0  0  0
  3 20  1  0  0  0  0
  4 21  1  0  0  0  0
  5  6  1  0  0  0  0
  5 22  1  0  0  0  0
  5 23  1  0  0  0  0
  6 24  1  0  0  0  0
  6 25  1  0  0  0  0
  7  8  1  0  0  0  0
  7 26  1  0  0  0  0
  7 27  1  0  0  0  0
  8 28  1  0  0  0  0
  8 29  1  0  0  0  0
  9 11  1  0  0  0  0
  9 30  1  0  0  0  0
  9 31  1  0  0  0  0
 10 32  1  0  0  0  0
 10 33  1  0  0  0  0
 10 34  1  0  0  0  0
 11 12  2  0  0  0  0
 11 35  1  0  0  0  0
 12 13  1  0  0  0  0
 12 36  1  0  0  0  0
 13 14  2  0  0  0  0
 13 15  1  0  0  0  0
 14 16  1  0  0  0  0
 14 37  1  0  0  0  0
 15 17  2  0  0  0  0
 15 38  1  0  0  0  0
 16 18  2  0  0  0  0
 16 39  1  0  0  0  0
 17 18  1  0  0  0  0
 17 40  1  0  0  0  0
 18 41  1  0  0  0  0
M  END
> <PUBCHEM_COMPOUND_CID>
56800557

> <PUBCHEM_COMPOUND_CANONICALIZED>
1

> <PUBCHEM_CACTVS_COMPLEXITY>
270

> <PUBCHEM_CACTVS_HBOND_ACCEPTOR>
1

> <PUBCHEM_CACTVS_HBOND_DONOR>
0

> <PUBCHEM_CACTVS_ROTATABLE_BOND>
6

> <PUBCHEM_CACTVS_SUBSKEYS>
AAADceB6AAAAAAAAAAAAAAAAGDAAAAAAAAAwAAAAAAAAAAABAAAAHAAAAAAADSjBGAQyAIMAAACAAiBCAACCAAAgAAAIiAAIAIgIICKAkRCEIAAggACIiAcAgAAOAAAAAAAAAAAAAAAAAAAAAAAAAAAAAA==

> <PUBCHEM_IUPAC_OPENEYE_NAME>
(E)-N-(dicyclopropylmethyl)-N-methyl-3-phenyl-prop-2-en-1-amine

> <PUBCHEM_IUPAC_CAS_NAME>
(E)-N-(dicyclopropylmethyl)-N-methyl-3-phenyl-2-propen-1-amine

> <PUBCHEM_IUPAC_NAME>
(E)-N-(dicyclopropylmethyl)-N-methyl-3-phenylprop-2-en-1-amine

> <PUBCHEM_IUPAC_SYSTEMATIC_NAME>
(E)-N-(dicyclopropylmethyl)-N-methyl-3-phenyl-prop-2-en-1-amine

> <PUBCHEM_IUPAC_TRADITIONAL_NAME>
[(E)-cinnamyl]-(dicyclopropylmethyl)-methyl-amine

> <PUBCHEM_IUPAC_INCHI>
InChI=1S/C17H23N/c1-18(17(15-9-10-15)16-11-12-16)13-5-8-14-6-3-2-4-7-14/h2-8,15-17H,9-13H2,1H3/b8-5+

> <PUBCHEM_IUPAC_INCHIKEY>
TYIPOOCDLIFLEV-VMPITWQZSA-N

> <PUBCHEM_XLOGP3>
4.2

> <PUBCHEM_EXACT_MASS>
241.18305

> <PUBCHEM_MOLECULAR_FORMULA>
C17H23N

> <PUBCHEM_MOLECULAR_WEIGHT>
241.37122

> <PUBCHEM_OPENEYE_CAN_SMILES>
CN(CC=CC1=CC=CC=C1)C(C2CC2)C3CC3

> <PUBCHEM_OPENEYE_ISO_SMILES>
CN(C/C=C/C1=CC=CC=C1)C(C2CC2)C3CC3

> <PUBCHEM_CACTVS_TPSA>
3.2

> <PUBCHEM_MONOISOTOPIC_WEIGHT>
241.18305

> <PUBCHEM_TOTAL_CHARGE>
0

> <PUBCHEM_HEAVY_ATOM_COUNT>
18

> <PUBCHEM_ATOM_DEF_STEREO_COUNT>
0

> <PUBCHEM_ATOM_UDEF_STEREO_COUNT>
0

> <PUBCHEM_BOND_DEF_STEREO_COUNT>
1

> <PUBCHEM_BOND_UDEF_STEREO_COUNT>
0

> <PUBCHEM_ISOTOPIC_ATOM_COUNT>
0

> <PUBCHEM_COMPONENT_COUNT>
1

> <PUBCHEM_CACTVS_TAUTO_COUNT>
1

> <PUBCHEM_COORDINATE_TYPE>
1
5
255

> <PUBCHEM_BONDANNOTATIONS>
13  14  8
13  15  8
14  16  8
15  17  8
16  18  8
17  18  8

$$$$
56808827
  -OEChem-11301218112D

 54 54  0     0  0  0  0  0  0999 V2000
    5.9249   -0.4151    0.0000 O   0  0  0  0  0  0  0  0  0  0  0  0
    4.5981   -1.5284    0.0000 N   0  0  0  0  0  0  0  0  0  0  0  0
    4.2973    0.1773    0.0000 N   0  0  0  0  0  0  0  0  0  0  0  0
    4.3386    2.8227    0.0000 C   0  0  0  0  0  0  0  0  0  0  0  0
    3.6958    3.5888    0.0000 C   0  0  0  0  0  0  0  0  0  0  0  0
    5.4641   -3.0284    0.0000 C   0  0  0  0  0  0  0  0  0  0  0  0
    3.7320   -3.0284    0.0000 C   0  0  0  0  0  0  0  0  0  0  0  0
    4.5981   -2.5284    0.0000 C   0  0  0  0  0  0  0  0  0  0  0  0
    6.3301   -2.5284    0.0000 C   0  0  0  0  0  0  0  0  0  0  0  0
    2.8660   -2.5284    0.0000 C   0  0  0  0  0  0  0  0  0  0  0  0
    3.9965    1.8830    0.0000 C   0  0  0  0  0  0  0  0  0  0  0  0
    4.6393    1.1170    0.0000 C   0  0  0  0  0  0  0  0  0  0  0  0
    5.4641   -4.0284    0.0000 C   0  0  0  0  0  0  0  0  0  0  0  0
    3.7320   -4.0284    0.0000 C   0  0  0  0  0  0  0  0  0  0  0  0
    4.0378    4.5284    0.0000 C   0  0  0  0  0  0  0  0  0  0  0  0
    2.7110    3.4151    0.0000 C   0  0  0  0  0  0  0  0  0  0  0  0
    7.1962   -3.0284    0.0000 C   0  0  0  0  0  0  0  0  0  0  0  0
    6.9729   -1.7624    0.0000 C   0  0  0  0  0  0  0  0  0  0  0  0
    2.0000   -3.0284    0.0000 C   0  0  0  0  0  0  0  0  0  0  0  0
    2.8660   -1.5284    0.0000 C   0  0  0  0  0  0  0  0  0  0  0  0
    4.5981   -4.5284    0.0000 C   0  0  0  0  0  0  0  0  0  0  0  0
    4.9401   -0.5888    0.0000 C   0  0  0  0  0  0  0  0  0  0  0  0
    4.8755    2.5127    0.0000 H   0  0  0  0  0  0  0  0  0  0  0  0
    4.7371    3.2977    0.0000 H   0  0  0  0  0  0  0  0  0  0  0  0
    3.4837    3.0062    0.0000 H   0  0  0  0  0  0  0  0  0  0  0  0
    5.9316   -2.0535    0.0000 H   0  0  0  0  0  0  0  0  0  0  0  0
    2.8660   -3.1484    0.0000 H   0  0  0  0  0  0  0  0  0  0  0  0
    3.4596    2.1930    0.0000 H   0  0  0  0  0  0  0  0  0  0  0  0
    3.5980    1.4081    0.0000 H   0  0  0  0  0  0  0  0  0  0  0  0
    5.1763    0.8070    0.0000 H   0  0  0  0  0  0  0  0  0  0  0  0
    5.0379    1.5919    0.0000 H   0  0  0  0  0  0  0  0  0  0  0  0
    6.0010   -4.3384    0.0000 H   0  0  0  0  0  0  0  0  0  0  0  0
    3.1951   -4.3384    0.0000 H   0  0  0  0  0  0  0  0  0  0  0  0
    4.0611   -1.2184    0.0000 H   0  0  0  0  0  0  0  0  0  0  0  0
    2.6033    4.0257    0.0000 H   0  0  0  0  0  0  0  0  0  0  0  0
    2.1004    3.3074    0.0000 H   0  0  0  0  0  0  0  0  0  0  0  0
    2.8186    2.8045    0.0000 H   0  0  0  0  0  0  0  0  0  0  0  0
    4.6204    4.3164    0.0000 H   0  0  0  0  0  0  0  0  0  0  0  0
    4.2498    5.1111    0.0000 H   0  0  0  0  0  0  0  0  0  0  0  0
    3.4552    4.7405    0.0000 H   0  0  0  0  0  0  0  0  0  0  0  0
    7.4479   -2.1609    0.0000 H   0  0  0  0  0  0  0  0  0  0  0  0
    7.3714   -1.2875    0.0000 H   0  0  0  0  0  0  0  0  0  0  0  0
    6.4980   -1.3639    0.0000 H   0  0  0  0  0  0  0  0  0  0  0  0
    6.8862   -3.5654    0.0000 H   0  0  0  0  0  0  0  0  0  0  0  0
    7.7331   -3.3384    0.0000 H   0  0  0  0  0  0  0  0  0  0  0  0
    7.5062   -2.4915    0.0000 H   0  0  0  0  0  0  0  0  0  0  0  0
    3.4860   -1.5284    0.0000 H   0  0  0  0  0  0  0  0  0  0  0  0
    1.6900   -2.4915    0.0000 H   0  0  0  0  0  0  0  0  0  0  0  0
    1.4631   -3.3384    0.0000 H   0  0  0  0  0  0  0  0  0  0  0  0
    2.3100   -3.5654    0.0000 H   0  0  0  0  0  0  0  0  0  0  0  0
    2.8660   -0.9085    0.0000 H   0  0  0  0  0  0  0  0  0  0  0  0
    2.2460   -1.5284    0.0000 H   0  0  0  0  0  0  0  0  0  0  0  0
    4.5981   -5.1485    0.0000 H   0  0  0  0  0  0  0  0  0  0  0  0
    3.6867    0.0696    0.0000 H   0  0  0  0  0  0  0  0  0  0  0  0
  1 22  2  0  0  0  0
  2  8  1  0  0  0  0
  2 22  1  0  0  0  0
  2 34  1  0  0  0  0
  3 12  1  0  0  0  0
  3 22  1  0  0  0  0
  3 54  1  0  0  0  0
  4  5  1  0  0  0  0
  4 11  1  0  0  0  0
  4 23  1  0  0  0  0
  4 24  1  0  0  0  0
  5 15  1  0  0  0  0
  5 16  1  0  0  0  0
  5 25  1  0  0  0  0
  6  8  2  0  0  0  0
  6  9  1  0  0  0  0
  6 13  1  0  0  0  0
  7  8  1  0  0  0  0
  7 10  1  0  0  0  0
  7 14  2  0  0  0  0
  9 17  1  0  0  0  0
  9 18  1  0  0  0  0
  9 26  1  0  0  0  0
 10 19  1  0  0  0  0
 10 20  1  0  0  0  0
 10 27  1  0  0  0  0
 11 12  1  0  0  0  0
 11 28  1  0  0  0  0
 11 29  1  0  0  0  0
 12 30  1  0  0  0  0
 12 31  1  0  0  0  0
 13 21  2  0  0  0  0
 13 32  1  0  0  0  0
 14 21  1  0  0  0  0
 14 33  1  0  0  0  0
 15 38  1  0  0  0  0
 15 39  1  0  0  0  0
 15 40  1  0  0  0  0
 16 35  1  0  0  0  0
 16 36  1  0  0  0  0
 16 37  1  0  0  0  0
 17 44  1  0  0  0  0
 17 45  1  0  0  0  0
 17 46  1  0  0  0  0
 18 41  1  0  0  0  0
 18 42  1  0  0  0  0
 18 43  1  0  0  0  0
 19 48  1  0  0  0  0
 19 49  1  0  0  0  0
 19 50  1  0  0  0  0
 20 47  1  0  0  0  0
 20 51  1  0  0  0  0
 20 52  1  0  0  0  0
 21 53  1  0  0  0  0
M  END
> <PUBCHEM_COMPOUND_CID>
56808827

> <PUBCHEM_COMPOUND_CANONICALIZED>
1

> <PUBCHEM_CACTVS_COMPLEXITY>
309

> <PUBCHEM_CACTVS_HBOND_ACCEPTOR>
1

> <PUBCHEM_CACTVS_HBOND_DONOR>
2

> <PUBCHEM_CACTVS_ROTATABLE_BOND>
7

> <PUBCHEM_CACTVS_SUBSKEYS>
AAADcfB7IAAAAAAAAAAAAAAAAAAAAAAAAAAwAAAAAAAAAAABAAAAHgAQAAAADQjBGAQzwILAAACIAiRCUACCAAAhAAAIiIAIRIiIICLAkZGEIAholgJIyCcQgMAOgAACAAACAAAAAAQAAAQAAAAAAAAAAA==

> <PUBCHEM_IUPAC_OPENEYE_NAME>
1-(2,6-diisopropylphenyl)-3-isohexyl-urea

> <PUBCHEM_IUPAC_CAS_NAME>
1-[2,6-di(propan-2-yl)phenyl]-3-(4-methylpentyl)urea

> <PUBCHEM_IUPAC_NAME>
1-[2,6-di(propan-2-yl)phenyl]-3-(4-methylpentyl)urea

> <PUBCHEM_IUPAC_SYSTEMATIC_NAME>
1-[2,6-di(propan-2-yl)phenyl]-3-(4-methylpentyl)urea

> <PUBCHEM_IUPAC_TRADITIONAL_NAME>
1-(2,6-diisopropylphenyl)-3-isohexyl-urea

> <PUBCHEM_IUPAC_INCHI>
InChI=1S/C19H32N2O/c1-13(2)9-8-12-20-19(22)21-18-16(14(3)4)10-7-11-17(18)15(5)6/h7,10-11,13-15H,8-9,12H2,1-6H3,(H2,20,21,22)

> <PUBCHEM_IUPAC_INCHIKEY>
NCGPOLXUAQYELF-UHFFFAOYSA-N

> <PUBCHEM_XLOGP3>
4.3

> <PUBCHEM_EXACT_MASS>
304.251464

> <PUBCHEM_MOLECULAR_FORMULA>
C19H32N2O

> <PUBCHEM_MOLECULAR_WEIGHT>
304.47018

> <PUBCHEM_OPENEYE_CAN_SMILES>
CC(C)CCCNC(=O)NC1=C(C=CC=C1C(C)C)C(C)C

> <PUBCHEM_OPENEYE_ISO_SMILES>
CC(C)CCCNC(=O)NC1=C(C=CC=C1C(C)C)C(C)C

> <PUBCHEM_CACTVS_TPSA>
41.1

> <PUBCHEM_MONOISOTOPIC_WEIGHT>
304.251464

> <PUBCHEM_TOTAL_CHARGE>
0

> <PUBCHEM_HEAVY_ATOM_COUNT>
22

> <PUBCHEM_ATOM_DEF_STEREO_COUNT>
0

> <PUBCHEM_ATOM_UDEF_STEREO_COUNT>
0

> <PUBCHEM_BOND_DEF_STEREO_COUNT>
0

> <PUBCHEM_BOND_UDEF_STEREO_COUNT>
0

> <PUBCHEM_ISOTOPIC_ATOM_COUNT>
0

> <PUBCHEM_COMPONENT_COUNT>
1

> <PUBCHEM_CACTVS_TAUTO_COUNT>
3

> <PUBCHEM_COORDINATE_TYPE>
1
5
255

> <PUBCHEM_BONDANNOTATIONS>
13  21  8
14  21  8
6  13  8
6  8  8
7  14  8
7  8  8

$$$$
56822474
  -OEChem-11301218112D

 32 33  0     0  0  0  0  0  0999 V2000
    4.5981    1.5670    0.0000 N   0  0  0  0  0  0  0  0  0  0  0  0
    3.7320    0.0670    0.0000 N   0  0  0  0  0  0  0  0  0  0  0  0
    5.4641    0.0670    0.0000 N   0  0  0  0  0  0  0  0  0  0  0  0
    5.4641    2.0670    0.0000 C   0  0  0  0  0  0  0  0  0  0  0  0
    6.4641    2.0670    0.0000 C   0  0  0  0  0  0  0  0  0  0  0  0
    5.9641    2.9330    0.0000 C   0  0  0  0  0  0  0  0  0  0  0  0
    4.5981    0.5670    0.0000 C   0  0  0  0  0  0  0  0  0  0  0  0
    3.7320   -0.9330    0.0000 C   0  0  0  0  0  0  0  0  0  0  0  0
    2.8660   -1.4330    0.0000 C   0  0  0  0  0  0  0  0  0  0  0  0
    4.5981   -1.4330    0.0000 C   0  0  0  0  0  0  0  0  0  0  0  0
    4.5981   -2.4330    0.0000 C   0  0  0  0  0  0  0  0  0  0  0  0
    2.8660   -2.4330    0.0000 C   0  0  0  0  0  0  0  0  0  0  0  0
    3.7320   -2.9330    0.0000 C   0  0  0  0  0  0  0  0  0  0  0  0
    2.0000   -0.9330    0.0000 C   0  0  0  0  0  0  0  0  0  0  0  0
    5.4641   -2.9330    0.0000 C   0  0  0  0  0  0  0  0  0  0  0  0
    5.6246    1.4681    0.0000 H   0  0  0  0  0  0  0  0  0  0  0  0
    6.5718    1.4564    0.0000 H   0  0  0  0  0  0  0  0  0  0  0  0
    7.0467    2.2790    0.0000 H   0  0  0  0  0  0  0  0  0  0  0  0
    6.4390    3.3315    0.0000 H   0  0  0  0  0  0  0  0  0  0  0  0
    5.4892    3.3315    0.0000 H   0  0  0  0  0  0  0  0  0  0  0  0
    3.1951    0.3770    0.0000 H   0  0  0  0  0  0  0  0  0  0  0  0
    5.1350   -1.1230    0.0000 H   0  0  0  0  0  0  0  0  0  0  0  0
    6.0010    0.3770    0.0000 H   0  0  0  0  0  0  0  0  0  0  0  0
    5.4641   -0.5530    0.0000 H   0  0  0  0  0  0  0  0  0  0  0  0
    2.3291   -2.7430    0.0000 H   0  0  0  0  0  0  0  0  0  0  0  0
    3.7320   -3.5530    0.0000 H   0  0  0  0  0  0  0  0  0  0  0  0
    2.3100   -0.3961    0.0000 H   0  0  0  0  0  0  0  0  0  0  0  0
    1.4631   -0.6230    0.0000 H   0  0  0  0  0  0  0  0  0  0  0  0
    1.6900   -1.4700    0.0000 H   0  0  0  0  0  0  0  0  0  0  0  0
    5.1541   -3.4700    0.0000 H   0  0  0  0  0  0  0  0  0  0  0  0
    6.0010   -3.2430    0.0000 H   0  0  0  0  0  0  0  0  0  0  0  0
    5.7741   -2.3961    0.0000 H   0  0  0  0  0  0  0  0  0  0  0  0
  1  4  1  0  0  0  0
  1  7  2  0  0  0  0
  2  7  1  0  0  0  0
  2  8  1  0  0  0  0
  2 21  1  0  0  0  0
  3  7  1  0  0  0  0
  3 23  1  0  0  0  0
  3 24  1  0  0  0  0
  4  5  1  0  0  0  0
  4  6  1  0  0  0  0
  4 16  1  0  0  0  0
  5  6  1  0  0  0  0
  5 17  1  0  0  0  0
  5 18  1  0  0  0  0
  6 19  1  0  0  0  0
  6 20  1  0  0  0  0
  8  9  2  0  0  0  0
  8 10  1  0  0  0  0
  9 12  1  0  0  0  0
  9 14  1  0  0  0  0
 10 11  2  0  0  0  0
 10 22  1  0  0  0  0
 11 13  1  0  0  0  0
 11 15  1  0  0  0  0
 12 13  2  0  0  0  0
 12 25  1  0  0  0  0
 13 26  1  0  0  0  0
 14 27  1  0  0  0  0
 14 28  1  0  0  0  0
 14 29  1  0  0  0  0
 15 30  1  0  0  0  0
 15 31  1  0  0  0  0
 15 32  1  0  0  0  0
M  END
> <PUBCHEM_COMPOUND_CID>
56822474

> <PUBCHEM_COMPOUND_CANONICALIZED>
1

> <PUBCHEM_CACTVS_COMPLEXITY>
245

> <PUBCHEM_CACTVS_HBOND_ACCEPTOR>
1

> <PUBCHEM_CACTVS_HBOND_DONOR>
2

> <PUBCHEM_CACTVS_ROTATABLE_BOND>
3

> <PUBCHEM_CACTVS_SUBSKEYS>
AAADceBzAAAAAAAAAAAAAAAAGAAAAAAAAAAwAAAAAAAAAAABAAAAHAAQAAAADCjBGAQzwILAAACgAiRCZACCAAEhAgAJiAAAZIiIICLAmZGEIAhgkAJIyCcQgAAOQAAAQAACAACAAACAAAQAAAAAAAAAAA==

> <PUBCHEM_IUPAC_OPENEYE_NAME>
2-cyclopropyl-1-(2,5-dimethylphenyl)guanidine

> <PUBCHEM_IUPAC_CAS_NAME>
2-cyclopropyl-1-(2,5-dimethylphenyl)guanidine

> <PUBCHEM_IUPAC_NAME>
2-cyclopropyl-1-(2,5-dimethylphenyl)guanidine

> <PUBCHEM_IUPAC_SYSTEMATIC_NAME>
2-cyclopropyl-1-(2,5-dimethylphenyl)guanidine

> <PUBCHEM_IUPAC_TRADITIONAL_NAME>
2-cyclopropyl-1-(2,5-dimethylphenyl)guanidine

> <PUBCHEM_IUPAC_INCHI>
InChI=1S/C12H17N3/c1-8-3-4-9(2)11(7-8)15-12(13)14-10-5-6-10/h3-4,7,10H,5-6H2,1-2H3,(H3,13,14,15)

> <PUBCHEM_IUPAC_INCHIKEY>
IYMJWBVVRJLKLZ-UHFFFAOYSA-N

> <PUBCHEM_XLOGP3>
1.5

> <PUBCHEM_EXACT_MASS>
203.142248

> <PUBCHEM_MOLECULAR_FORMULA>
C12H17N3

> <PUBCHEM_MOLECULAR_WEIGHT>
203.28348

> <PUBCHEM_OPENEYE_CAN_SMILES>
CC1=CC(=C(C=C1)C)NC(=NC2CC2)N

> <PUBCHEM_OPENEYE_ISO_SMILES>
CC1=CC(=C(C=C1)C)NC(=NC2CC2)N

> <PUBCHEM_CACTVS_TPSA>
50.4

> <PUBCHEM_MONOISOTOPIC_WEIGHT>
203.142248

> <PUBCHEM_TOTAL_CHARGE>
0

> <PUBCHEM_HEAVY_ATOM_COUNT>
15

> <PUBCHEM_ATOM_DEF_STEREO_COUNT>
0

> <PUBCHEM_ATOM_UDEF_STEREO_COUNT>
0

> <PUBCHEM_BOND_DEF_STEREO_COUNT>
0

> <PUBCHEM_BOND_UDEF_STEREO_COUNT>
0

> <PUBCHEM_ISOTOPIC_ATOM_COUNT>
0

> <PUBCHEM_COMPONENT_COUNT>
1

> <PUBCHEM_CACTVS_TAUTO_COUNT>
3

> <PUBCHEM_COORDINATE_TYPE>
1
5
255

> <PUBCHEM_BONDANNOTATIONS>
10  11  8
11  13  8
12  13  8
8  10  8
8  9  8
9  12  8

$$$$
