30550672
  -OEChem-05231305192D

 49 50  0     0  0  0  0  0  0999 V2000
    2.0000    2.2500    0.0000 O   0  0  0  0  0  0  0  0  0  0  0  0
    4.5981    4.7500    0.0000 N   0  3  0  0  0  0  0  0  0  0  0  0
    3.7320    2.2500    0.0000 N   0  0  0  0  0  0  0  0  0  0  0  0
    4.5981    3.7500    0.0000 C   0  0  0  0  0  0  0  0  0  0  0  0
    4.5981    5.7500    0.0000 C   0  0  0  0  0  0  0  0  0  0  0  0
    5.5981    4.7500    0.0000 C   0  0  0  0  0  0  0  0  0  0  0  0
    3.7320    3.2500    0.0000 C   0  0  0  0  0  0  0  0  0  0  0  0
    6.0981    3.8840    0.0000 C   0  0  0  0  0  0  0  0  0  0  0  0
    5.4641    6.2500    0.0000 C   0  0  0  0  0  0  0  0  0  0  0  0
    2.8660    1.7500    0.0000 C   0  0  0  0  0  0  0  0  0  0  0  0
    2.8660    0.7500    0.0000 C   0  0  0  0  0  0  0  0  0  0  0  0
    3.7320    0.2500    0.0000 C   0  0  0  0  0  0  0  0  0  0  0  0
    2.0000    0.2500    0.0000 C   0  0  0  0  0  0  0  0  0  0  0  0
    3.7320   -0.7500    0.0000 C   0  0  0  0  0  0  0  0  0  0  0  0
    2.0000   -0.7500    0.0000 C   0  0  0  0  0  0  0  0  0  0  0  0
    2.8660   -1.2500    0.0000 C   0  0  0  0  0  0  0  0  0  0  0  0
    2.8660   -2.2500    0.0000 C   0  0  0  0  0  0  0  0  0  0  0  0
    2.8660   -4.2500    0.0000 C   0  0  0  0  0  0  0  0  0  0  0  0
    2.8660   -3.2500    0.0000 C   0  0  0  0  0  0  0  0  0  0  0  0
    3.7320   -4.7500    0.0000 C   0  0  0  0  0  0  0  0  0  0  0  0
    2.0000   -4.7500    0.0000 C   0  0  0  0  0  0  0  0  0  0  0  0
    3.7320   -5.7500    0.0000 C   0  0  0  0  0  0  0  0  0  0  0  0
    2.0000   -5.7500    0.0000 C   0  0  0  0  0  0  0  0  0  0  0  0
    2.8660   -6.2500    0.0000 C   0  0  0  0  0  0  0  0  0  0  0  0
    3.9781    4.7500    0.0000 H   0  0  0  0  0  0  0  0  0  0  0  0
    4.8101    3.1674    0.0000 H   0  0  0  0  0  0  0  0  0  0  0  0
    5.2087    3.8577    0.0000 H   0  0  0  0  0  0  0  0  0  0  0  0
    4.3860    6.3326    0.0000 H   0  0  0  0  0  0  0  0  0  0  0  0
    3.9875    5.6423    0.0000 H   0  0  0  0  0  0  0  0  0  0  0  0
    6.1807    4.9620    0.0000 H   0  0  0  0  0  0  0  0  0  0  0  0
    5.4904    5.3606    0.0000 H   0  0  0  0  0  0  0  0  0  0  0  0
    3.5200    3.8326    0.0000 H   0  0  0  0  0  0  0  0  0  0  0  0
    3.1215    3.1423    0.0000 H   0  0  0  0  0  0  0  0  0  0  0  0
    5.5611    3.5740    0.0000 H   0  0  0  0  0  0  0  0  0  0  0  0
    5.7741    5.7131    0.0000 H   0  0  0  0  0  0  0  0  0  0  0  0
    6.0010    6.5600    0.0000 H   0  0  0  0  0  0  0  0  0  0  0  0
    5.1541    6.7869    0.0000 H   0  0  0  0  0  0  0  0  0  0  0  0
    6.4081    3.3470    0.0000 H   0  0  0  0  0  0  0  0  0  0  0  0
    6.6350    4.1940    0.0000 H   0  0  0  0  0  0  0  0  0  0  0  0
    4.2690    1.9400    0.0000 H   0  0  0  0  0  0  0  0  0  0  0  0
    4.2690    0.5600    0.0000 H   0  0  0  0  0  0  0  0  0  0  0  0
    1.4631    0.5600    0.0000 H   0  0  0  0  0  0  0  0  0  0  0  0
    4.2690   -1.0600    0.0000 H   0  0  0  0  0  0  0  0  0  0  0  0
    1.4631   -1.0600    0.0000 H   0  0  0  0  0  0  0  0  0  0  0  0
    4.2690   -4.4400    0.0000 H   0  0  0  0  0  0  0  0  0  0  0  0
    1.4631   -4.4400    0.0000 H   0  0  0  0  0  0  0  0  0  0  0  0
    4.2690   -6.0600    0.0000 H   0  0  0  0  0  0  0  0  0  0  0  0
    1.4631   -6.0600    0.0000 H   0  0  0  0  0  0  0  0  0  0  0  0
    2.8660   -6.8700    0.0000 H   0  0  0  0  0  0  0  0  0  0  0  0
  1 10  2  0  0  0  0
  2  4  1  0  0  0  0
  2  5  1  0  0  0  0
  2  6  1  0  0  0  0
  2 25  1  0  0  0  0
  3  7  1  0  0  0  0
  3 10  1  0  0  0  0
  3 40  1  0  0  0  0
  4  7  1  0  0  0  0
  4 26  1  0  0  0  0
  4 27  1  0  0  0  0
  5  9  1  0  0  0  0
  5 28  1  0  0  0  0
  5 29  1  0  0  0  0
  6  8  1  0  0  0  0
  6 30  1  0  0  0  0
  6 31  1  0  0  0  0
  7 32  1  0  0  0  0
  7 33  1  0  0  0  0
  8 34  1  0  0  0  0
  8 38  1  0  0  0  0
  8 39  1  0  0  0  0
  9 35  1  0  0  0  0
  9 36  1  0  0  0  0
  9 37  1  0  0  0  0
 10 11  1  0  0  0  0
 11 12  2  0  0  0  0
 11 13  1  0  0  0  0
 12 14  1  0  0  0  0
 12 41  1  0  0  0  0
 13 15  2  0  0  0  0
 13 42  1  0  0  0  0
 14 16  2  0  0  0  0
 14 43  1  0  0  0  0
 15 16  1  0  0  0  0
 15 44  1  0  0  0  0
 16 17  1  0  0  0  0
 17 19  3  0  0  0  0
 18 19  1  0  0  0  0
 18 20  2  0  0  0  0
 18 21  1  0  0  0  0
 20 22  1  0  0  0  0
 20 45  1  0  0  0  0
 21 23  2  0  0  0  0
 21 46  1  0  0  0  0
 22 24  2  0  0  0  0
 22 47  1  0  0  0  0
 23 24  1  0  0  0  0
 23 48  1  0  0  0  0
 24 49  1  0  0  0  0
M  CHG  1   2   1
M  END
> <PUBCHEM_COMPOUND_CID>
30550672

> <PUBCHEM_COMPOUND_CANONICALIZED>
1

> <PUBCHEM_CACTVS_COMPLEXITY>
429

> <PUBCHEM_CACTVS_HBOND_ACCEPTOR>
1

> <PUBCHEM_CACTVS_HBOND_DONOR>
2

> <PUBCHEM_CACTVS_ROTATABLE_BOND>
8

> <PUBCHEM_CACTVS_SUBSKEYS>
AAADceB7IAAAAAAAAAAAAAAAAAAAAAAAAAAwYAAAAAAAAAABQAAAHgAQAAAADADBmAQyAIPAAADIEiFSEAiCAAAkAAAIiIEIBMgIYDKAlRGUIQhglgCIiYcYiACOQAAAAAAAAACAAAAAAAAAAAAAAAAAAA==

> <PUBCHEM_IUPAC_OPENEYE_NAME>
diethyl-[2-[[4-(2-phenylethynyl)benzoyl]amino]ethyl]ammonium

> <PUBCHEM_IUPAC_CAS_NAME>
diethyl-[2-[[oxo-[4-(2-phenylethynyl)phenyl]methyl]amino]ethyl]ammonium

> <PUBCHEM_IUPAC_NAME>
diethyl-[2-[[4-(2-phenylethynyl)benzoyl]amino]ethyl]azanium

> <PUBCHEM_IUPAC_SYSTEMATIC_NAME>
diethyl-[2-[[4-(2-phenylethynyl)phenyl]carbonylamino]ethyl]azanium

> <PUBCHEM_IUPAC_TRADITIONAL_NAME>
diethyl-[2-[[4-(2-phenylethynyl)benzoyl]amino]ethyl]ammonium

> <PUBCHEM_IUPAC_INCHI>
InChI=1S/C21H24N2O/c1-3-23(4-2)17-16-22-21(24)20-14-12-19(13-15-20)11-10-18-8-6-5-7-9-18/h5-9,12-15H,3-4,16-17H2,1-2H3,(H,22,24)/p+1

> <PUBCHEM_IUPAC_INCHIKEY>
GJVQIEMQAVNFKU-UHFFFAOYSA-O

> <PUBCHEM_XLOGP3>
4

> <PUBCHEM_EXACT_MASS>
321.196688

> <PUBCHEM_MOLECULAR_FORMULA>
C21H25N2O+

> <PUBCHEM_MOLECULAR_WEIGHT>
321.436

> <PUBCHEM_OPENEYE_CAN_SMILES>
CC[NH+](CC)CCNC(=O)C1=CC=C(C=C1)C#CC2=CC=CC=C2

> <PUBCHEM_OPENEYE_ISO_SMILES>
CC[NH+](CC)CCNC(=O)C1=CC=C(C=C1)C#CC2=CC=CC=C2

> <PUBCHEM_CACTVS_TPSA>
33.5

> <PUBCHEM_MONOISOTOPIC_WEIGHT>
321.196688

> <PUBCHEM_TOTAL_CHARGE>
1

> <PUBCHEM_HEAVY_ATOM_COUNT>
24

> <PUBCHEM_ATOM_DEF_STEREO_COUNT>
0

> <PUBCHEM_ATOM_UDEF_STEREO_COUNT>
0

> <PUBCHEM_BOND_DEF_STEREO_COUNT>
0

> <PUBCHEM_BOND_UDEF_STEREO_COUNT>
0

> <PUBCHEM_ISOTOPIC_ATOM_COUNT>
0

> <PUBCHEM_COMPONENT_COUNT>
1

> <PUBCHEM_CACTVS_TAUTO_COUNT>
2

> <PUBCHEM_COORDINATE_TYPE>
1
5
255

> <PUBCHEM_BONDANNOTATIONS>
11  12  8
11  13  8
12  14  8
13  15  8
14  16  8
15  16  8
18  20  8
18  21  8
20  22  8
21  23  8
22  24  8
23  24  8

$$$$
