25953342
  -OEChem-11301217382D

 43 44  0     0  0  0  0  0  0999 V2000
    2.0000   -4.6830    0.0000 Cl  0  0  0  0  0  0  0  0  0  0  0  0
    3.7320   -5.6830    0.0000 Cl  0  0  0  0  0  0  0  0  0  0  0  0
    5.4641   -1.6830    0.0000 O   0  0  0  0  0  0  0  0  0  0  0  0
    6.3301    4.8170    0.0000 N   0  3  0  0  0  0  0  0  0  0  0  0
    4.5981   -0.1830    0.0000 N   0  0  0  0  0  0  0  0  0  0  0  0
    3.7320   -1.6830    0.0000 N   0  0  0  0  0  0  0  0  0  0  0  0
    5.4641    4.3170    0.0000 C   0  0  0  0  0  0  0  0  0  0  0  0
    5.4641    3.3170    0.0000 C   0  0  0  0  0  0  0  0  0  0  0  0
    7.1962    5.3170    0.0000 C   0  0  0  0  0  0  0  0  0  0  0  0
    5.8301    5.6830    0.0000 C   0  0  0  0  0  0  0  0  0  0  0  0
    4.5981    2.8170    0.0000 C   0  0  0  0  0  0  0  0  0  0  0  0
    6.3301    2.8170    0.0000 C   0  0  0  0  0  0  0  0  0  0  0  0
    5.4641    1.3170    0.0000 C   0  0  0  0  0  0  0  0  0  0  0  0
    4.5981    1.8170    0.0000 C   0  0  0  0  0  0  0  0  0  0  0  0
    6.3301    1.8170    0.0000 C   0  0  0  0  0  0  0  0  0  0  0  0
    5.4641    0.3170    0.0000 C   0  0  0  0  0  0  0  0  0  0  0  0
    4.5981   -1.1830    0.0000 C   0  0  0  0  0  0  0  0  0  0  0  0
    3.7320   -2.6830    0.0000 C   0  0  0  0  0  0  0  0  0  0  0  0
    2.8660   -3.1830    0.0000 C   0  0  0  0  0  0  0  0  0  0  0  0
    4.5981   -3.1830    0.0000 C   0  0  0  0  0  0  0  0  0  0  0  0
    2.8660   -4.1830    0.0000 C   0  0  0  0  0  0  0  0  0  0  0  0
    4.5981   -4.1830    0.0000 C   0  0  0  0  0  0  0  0  0  0  0  0
    3.7320   -4.6830    0.0000 C   0  0  0  0  0  0  0  0  0  0  0  0
    6.6401    4.2800    0.0000 H   0  0  0  0  0  0  0  0  0  0  0  0
    5.2520    4.8996    0.0000 H   0  0  0  0  0  0  0  0  0  0  0  0
    4.8535    4.2093    0.0000 H   0  0  0  0  0  0  0  0  0  0  0  0
    6.3671    5.9930    0.0000 H   0  0  0  0  0  0  0  0  0  0  0  0
    7.5062    4.7800    0.0000 H   0  0  0  0  0  0  0  0  0  0  0  0
    7.7331    5.6270    0.0000 H   0  0  0  0  0  0  0  0  0  0  0  0
    6.8862    5.8539    0.0000 H   0  0  0  0  0  0  0  0  0  0  0  0
    5.5201    6.2200    0.0000 H   0  0  0  0  0  0  0  0  0  0  0  0
    5.2932    5.3730    0.0000 H   0  0  0  0  0  0  0  0  0  0  0  0
    4.0611    3.1270    0.0000 H   0  0  0  0  0  0  0  0  0  0  0  0
    6.8671    3.1270    0.0000 H   0  0  0  0  0  0  0  0  0  0  0  0
    4.0611    1.5070    0.0000 H   0  0  0  0  0  0  0  0  0  0  0  0
    6.8671    1.5070    0.0000 H   0  0  0  0  0  0  0  0  0  0  0  0
    5.6762   -0.2656    0.0000 H   0  0  0  0  0  0  0  0  0  0  0  0
    6.0747    0.4246    0.0000 H   0  0  0  0  0  0  0  0  0  0  0  0
    4.0611    0.1270    0.0000 H   0  0  0  0  0  0  0  0  0  0  0  0
    3.1951   -1.3730    0.0000 H   0  0  0  0  0  0  0  0  0  0  0  0
    2.3291   -2.8730    0.0000 H   0  0  0  0  0  0  0  0  0  0  0  0
    5.1350   -2.8730    0.0000 H   0  0  0  0  0  0  0  0  0  0  0  0
    5.1350   -4.4930    0.0000 H   0  0  0  0  0  0  0  0  0  0  0  0
  1 21  1  0  0  0  0
  2 23  1  0  0  0  0
  3 17  2  0  0  0  0
  4  7  1  0  0  0  0
  4  9  1  0  0  0  0
  4 10  1  0  0  0  0
  4 24  1  0  0  0  0
  5 16  1  0  0  0  0
  5 17  1  0  0  0  0
  5 39  1  0  0  0  0
  6 17  1  0  0  0  0
  6 18  1  0  0  0  0
  6 40  1  0  0  0  0
  7  8  1  0  0  0  0
  7 25  1  0  0  0  0
  7 26  1  0  0  0  0
  8 11  2  0  0  0  0
  8 12  1  0  0  0  0
  9 28  1  0  0  0  0
  9 29  1  0  0  0  0
  9 30  1  0  0  0  0
 10 27  1  0  0  0  0
 10 31  1  0  0  0  0
 10 32  1  0  0  0  0
 11 14  1  0  0  0  0
 11 33  1  0  0  0  0
 12 15  2  0  0  0  0
 12 34  1  0  0  0  0
 13 14  2  0  0  0  0
 13 15  1  0  0  0  0
 13 16  1  0  0  0  0
 14 35  1  0  0  0  0
 15 36  1  0  0  0  0
 16 37  1  0  0  0  0
 16 38  1  0  0  0  0
 18 19  2  0  0  0  0
 18 20  1  0  0  0  0
 19 21  1  0  0  0  0
 19 41  1  0  0  0  0
 20 22  2  0  0  0  0
 20 42  1  0  0  0  0
 21 23  2  0  0  0  0
 22 23  1  0  0  0  0
 22 43  1  0  0  0  0
M  CHG  1   4   1
M  END
> <PUBCHEM_COMPOUND_CID>
25953342

> <PUBCHEM_COMPOUND_CANONICALIZED>
1

> <PUBCHEM_CACTVS_COMPLEXITY>
373

> <PUBCHEM_CACTVS_HBOND_ACCEPTOR>
1

> <PUBCHEM_CACTVS_HBOND_DONOR>
3

> <PUBCHEM_CACTVS_ROTATABLE_BOND>
5

> <PUBCHEM_CACTVS_SUBSKEYS>
AAADceB7IAAGAAAAAAAAAAAAAAAAAAAAAAAwYAAAAAAAAAABQAAAHgIQAAAADArBGCQzwIPAAACIAiRCUACCAAAhBwAIisAIZoiIICLBk5GEIAholgJIyCcQgAAOQABAAAIAAASAAIAABAAACAAAAAAAAA==

> <PUBCHEM_IUPAC_OPENEYE_NAME>
[4-[[(3,4-dichlorophenyl)carbamoylamino]methyl]phenyl]methyl-dimethyl-ammonium

> <PUBCHEM_IUPAC_CAS_NAME>
[4-[[[(3,4-dichloroanilino)-oxomethyl]amino]methyl]phenyl]methyl-dimethylammonium

> <PUBCHEM_IUPAC_NAME>
[4-[[(3,4-dichlorophenyl)carbamoylamino]methyl]phenyl]methyl-dimethylazanium

> <PUBCHEM_IUPAC_SYSTEMATIC_NAME>
[4-[[(3,4-dichlorophenyl)carbamoylamino]methyl]phenyl]methyl-dimethyl-azanium

> <PUBCHEM_IUPAC_TRADITIONAL_NAME>
[4-[[(3,4-dichlorophenyl)carbamoylamino]methyl]benzyl]-dimethyl-ammonium

> <PUBCHEM_IUPAC_INCHI>
InChI=1S/C17H19Cl2N3O/c1-22(2)11-13-5-3-12(4-6-13)10-20-17(23)21-14-7-8-15(18)16(19)9-14/h3-9H,10-11H2,1-2H3,(H2,20,21,23)/p+1

> <PUBCHEM_IUPAC_INCHIKEY>
VYLBCFLJPFNEQJ-UHFFFAOYSA-O

> <PUBCHEM_XLOGP3>
4.3

> <PUBCHEM_EXACT_MASS>
352.098343

> <PUBCHEM_MOLECULAR_FORMULA>
C17H20Cl2N3O+

> <PUBCHEM_MOLECULAR_WEIGHT>
353.2662

> <PUBCHEM_OPENEYE_CAN_SMILES>
C[NH+](C)CC1=CC=C(C=C1)CNC(=O)NC2=CC(=C(C=C2)Cl)Cl

> <PUBCHEM_OPENEYE_ISO_SMILES>
C[NH+](C)CC1=CC=C(C=C1)CNC(=O)NC2=CC(=C(C=C2)Cl)Cl

> <PUBCHEM_CACTVS_TPSA>
45.6

> <PUBCHEM_MONOISOTOPIC_WEIGHT>
352.098343

> <PUBCHEM_TOTAL_CHARGE>
1

> <PUBCHEM_HEAVY_ATOM_COUNT>
23

> <PUBCHEM_ATOM_DEF_STEREO_COUNT>
0

> <PUBCHEM_ATOM_UDEF_STEREO_COUNT>
0

> <PUBCHEM_BOND_DEF_STEREO_COUNT>
0

> <PUBCHEM_BOND_UDEF_STEREO_COUNT>
0

> <PUBCHEM_ISOTOPIC_ATOM_COUNT>
0

> <PUBCHEM_COMPONENT_COUNT>
1

> <PUBCHEM_CACTVS_TAUTO_COUNT>
3

> <PUBCHEM_COORDINATE_TYPE>
1
5
255

> <PUBCHEM_BONDANNOTATIONS>
11  14  8
12  15  8
13  14  8
13  15  8
18  19  8
18  20  8
19  21  8
20  22  8
21  23  8
22  23  8
8  11  8
8  12  8

$$$$
