51476158
  -OEChem-11301218002D

 48 50  0     0  0  0  0  0  0999 V2000
    3.5827    1.3716    0.0000 O   0  0  0  0  0  0  0  0  0  0  0  0
    3.5827   -3.6284    0.0000 N   0  3  0  0  0  0  0  0  0  0  0  0
    5.3147    1.3716    0.0000 N   0  0  0  0  0  0  0  0  0  0  0  0
    3.0827   -2.7624    0.0000 C   0  0  0  0  0  0  0  0  0  0  0  0
    2.9136   -4.3716    0.0000 C   0  0  0  0  0  0  0  0  0  0  0  0
    2.0000   -3.9648    0.0000 C   0  0  0  0  0  0  0  0  0  0  0  0
    2.1045   -2.9703    0.0000 C   0  0  0  0  0  0  0  0  0  0  0  0
    4.4487   -3.1284    0.0000 C   0  0  0  0  0  0  0  0  0  0  0  0
    4.4487   -2.1284    0.0000 C   0  0  0  0  0  0  0  0  0  0  0  0
    5.3147   -1.6284    0.0000 C   0  0  0  0  0  0  0  0  0  0  0  0
    3.5827   -1.6284    0.0000 C   0  0  0  0  0  0  0  0  0  0  0  0
    5.3147   -0.6284    0.0000 C   0  0  0  0  0  0  0  0  0  0  0  0
    3.5827   -0.6284    0.0000 C   0  0  0  0  0  0  0  0  0  0  0  0
    4.4487   -0.1284    0.0000 C   0  0  0  0  0  0  0  0  0  0  0  0
    4.4487    0.8716    0.0000 C   0  0  0  0  0  0  0  0  0  0  0  0
    5.3147    2.3716    0.0000 C   0  0  0  0  0  0  0  0  0  0  0  0
    6.1808    2.8716    0.0000 C   0  0  0  0  0  0  0  0  0  0  0  0
    7.0468    2.3716    0.0000 C   0  0  0  0  0  0  0  0  0  0  0  0
    4.4487    2.8716    0.0000 C   0  0  0  0  0  0  0  0  0  0  0  0
    6.1808    3.8716    0.0000 C   0  0  0  0  0  0  0  0  0  0  0  0
    7.9128    2.8716    0.0000 C   0  0  0  0  0  0  0  0  0  0  0  0
    4.4487    3.8716    0.0000 C   0  0  0  0  0  0  0  0  0  0  0  0
    5.3147    4.3716    0.0000 C   0  0  0  0  0  0  0  0  0  0  0  0
    4.3258   -4.2976    0.0000 H   0  0  0  0  0  0  0  0  0  0  0  0
    3.6491   -2.5102    0.0000 H   0  0  0  0  0  0  0  0  0  0  0  0
    2.8911   -2.1728    0.0000 H   0  0  0  0  0  0  0  0  0  0  0  0
    2.6035   -4.9085    0.0000 H   0  0  0  0  0  0  0  0  0  0  0  0
    3.4151   -4.7360    0.0000 H   0  0  0  0  0  0  0  0  0  0  0  0
    2.0397   -2.3537    0.0000 H   0  0  0  0  0  0  0  0  0  0  0  0
    1.4845   -2.9703    0.0000 H   0  0  0  0  0  0  0  0  0  0  0  0
    1.3936   -3.8359    0.0000 H   0  0  0  0  0  0  0  0  0  0  0  0
    1.8084   -4.5545    0.0000 H   0  0  0  0  0  0  0  0  0  0  0  0
    4.6608   -3.7110    0.0000 H   0  0  0  0  0  0  0  0  0  0  0  0
    5.0593   -3.0208    0.0000 H   0  0  0  0  0  0  0  0  0  0  0  0
    5.8517   -1.9384    0.0000 H   0  0  0  0  0  0  0  0  0  0  0  0
    3.0457   -1.9384    0.0000 H   0  0  0  0  0  0  0  0  0  0  0  0
    5.8517   -0.3184    0.0000 H   0  0  0  0  0  0  0  0  0  0  0  0
    3.0457   -0.3184    0.0000 H   0  0  0  0  0  0  0  0  0  0  0  0
    5.8517    1.0616    0.0000 H   0  0  0  0  0  0  0  0  0  0  0  0
    6.6482    1.8966    0.0000 H   0  0  0  0  0  0  0  0  0  0  0  0
    7.4453    1.8966    0.0000 H   0  0  0  0  0  0  0  0  0  0  0  0
    3.9118    2.5616    0.0000 H   0  0  0  0  0  0  0  0  0  0  0  0
    6.7177    4.1816    0.0000 H   0  0  0  0  0  0  0  0  0  0  0  0
    8.2228    2.3346    0.0000 H   0  0  0  0  0  0  0  0  0  0  0  0
    8.4497    3.1816    0.0000 H   0  0  0  0  0  0  0  0  0  0  0  0
    7.6028    3.4085    0.0000 H   0  0  0  0  0  0  0  0  0  0  0  0
    3.9118    4.1816    0.0000 H   0  0  0  0  0  0  0  0  0  0  0  0
    5.3147    4.9916    0.0000 H   0  0  0  0  0  0  0  0  0  0  0  0
  1 15  2  0  0  0  0
  2  4  1  0  0  0  0
  2  5  1  0  0  0  0
  2  8  1  0  0  0  0
  2 24  1  0  0  0  0
  3 15  1  0  0  0  0
  3 16  1  0  0  0  0
  3 39  1  0  0  0  0
  4  7  1  0  0  0  0
  4 25  1  0  0  0  0
  4 26  1  0  0  0  0
  5  6  1  0  0  0  0
  5 27  1  0  0  0  0
  5 28  1  0  0  0  0
  6  7  1  0  0  0  0
  6 31  1  0  0  0  0
  6 32  1  0  0  0  0
  7 29  1  0  0  0  0
  7 30  1  0  0  0  0
  8  9  1  0  0  0  0
  8 33  1  0  0  0  0
  8 34  1  0  0  0  0
  9 10  2  0  0  0  0
  9 11  1  0  0  0  0
 10 12  1  0  0  0  0
 10 35  1  0  0  0  0
 11 13  2  0  0  0  0
 11 36  1  0  0  0  0
 12 14  2  0  0  0  0
 12 37  1  0  0  0  0
 13 14  1  0  0  0  0
 13 38  1  0  0  0  0
 14 15  1  0  0  0  0
 16 17  1  0  0  0  0
 16 19  2  0  0  0  0
 17 18  1  0  0  0  0
 17 20  2  0  0  0  0
 18 21  1  0  0  0  0
 18 40  1  0  0  0  0
 18 41  1  0  0  0  0
 19 22  1  0  0  0  0
 19 42  1  0  0  0  0
 20 23  1  0  0  0  0
 20 43  1  0  0  0  0
 21 44  1  0  0  0  0
 21 45  1  0  0  0  0
 21 46  1  0  0  0  0
 22 23  2  0  0  0  0
 22 47  1  0  0  0  0
 23 48  1  0  0  0  0
M  CHG  1   2   1
M  END
> <PUBCHEM_COMPOUND_CID>
51476158

> <PUBCHEM_COMPOUND_CANONICALIZED>
1

> <PUBCHEM_CACTVS_COMPLEXITY>
370

> <PUBCHEM_CACTVS_HBOND_ACCEPTOR>
1

> <PUBCHEM_CACTVS_HBOND_DONOR>
2

> <PUBCHEM_CACTVS_ROTATABLE_BOND>
5

> <PUBCHEM_CACTVS_SUBSKEYS>
AAADceB7IAAAAAAAAAAAAAAAAAAAAWAAAAAwYAAAAAAAAAABQAAAHgAQAAAADAjBmAQywIPAAACIAiVSUACCAAAlAgAIiIEIZMgIIDLAlZGEIQhglADIyYcYiICOQAAAAAACAACAAAAAAAQAAAAAAAAAAA==

> <PUBCHEM_IUPAC_OPENEYE_NAME>
N-(2-ethylphenyl)-4-(pyrrolidin-1-ium-1-ylmethyl)benzamide

> <PUBCHEM_IUPAC_CAS_NAME>
N-(2-ethylphenyl)-4-(1-pyrrolidin-1-iumylmethyl)benzamide

> <PUBCHEM_IUPAC_NAME>
N-(2-ethylphenyl)-4-(pyrrolidin-1-ium-1-ylmethyl)benzamide

> <PUBCHEM_IUPAC_SYSTEMATIC_NAME>
N-(2-ethylphenyl)-4-(pyrrolidin-1-ium-1-ylmethyl)benzamide

> <PUBCHEM_IUPAC_TRADITIONAL_NAME>
N-(2-ethylphenyl)-4-(pyrrolidin-1-ium-1-ylmethyl)benzamide

> <PUBCHEM_IUPAC_INCHI>
InChI=1S/C20H24N2O/c1-2-17-7-3-4-8-19(17)21-20(23)18-11-9-16(10-12-18)15-22-13-5-6-14-22/h3-4,7-12H,2,5-6,13-15H2,1H3,(H,21,23)/p+1

> <PUBCHEM_IUPAC_INCHIKEY>
TXDOQHYAOJJBJY-UHFFFAOYSA-O

> <PUBCHEM_XLOGP3>
3.2

> <PUBCHEM_EXACT_MASS>
309.196688

> <PUBCHEM_MOLECULAR_FORMULA>
C20H25N2O+

> <PUBCHEM_MOLECULAR_WEIGHT>
309.4253

> <PUBCHEM_OPENEYE_CAN_SMILES>
CCC1=CC=CC=C1NC(=O)C2=CC=C(C=C2)C[NH+]3CCCC3

> <PUBCHEM_OPENEYE_ISO_SMILES>
CCC1=CC=CC=C1NC(=O)C2=CC=C(C=C2)C[NH+]3CCCC3

> <PUBCHEM_CACTVS_TPSA>
33.5

> <PUBCHEM_MONOISOTOPIC_WEIGHT>
309.196688

> <PUBCHEM_TOTAL_CHARGE>
1

> <PUBCHEM_HEAVY_ATOM_COUNT>
23

> <PUBCHEM_ATOM_DEF_STEREO_COUNT>
0

> <PUBCHEM_ATOM_UDEF_STEREO_COUNT>
0

> <PUBCHEM_BOND_DEF_STEREO_COUNT>
0

> <PUBCHEM_BOND_UDEF_STEREO_COUNT>
0

> <PUBCHEM_ISOTOPIC_ATOM_COUNT>
0

> <PUBCHEM_COMPONENT_COUNT>
1

> <PUBCHEM_CACTVS_TAUTO_COUNT>
2

> <PUBCHEM_COORDINATE_TYPE>
1
5
255

> <PUBCHEM_BONDANNOTATIONS>
10  12  8
11  13  8
12  14  8
13  14  8
16  17  8
16  19  8
17  20  8
19  22  8
20  23  8
22  23  8
9  10  8
9  11  8

$$$$
51476269
  -OEChem-11301218002D

 42 44  0     0  0  0  0  0  0999 V2000
    5.3147    4.8716    0.0000 I   0  0  0  0  0  0  0  0  0  0  0  0
    3.5827    0.8716    0.0000 O   0  0  0  0  0  0  0  0  0  0  0  0
    3.5827   -4.1284    0.0000 N   0  3  0  0  0  0  0  0  0  0  0  0
    5.3147    0.8716    0.0000 N   0  0  0  0  0  0  0  0  0  0  0  0
    3.0827   -3.2624    0.0000 C   0  0  0  0  0  0  0  0  0  0  0  0
    2.9136   -4.8716    0.0000 C   0  0  0  0  0  0  0  0  0  0  0  0
    2.1045   -3.4703    0.0000 C   0  0  0  0  0  0  0  0  0  0  0  0
    2.0000   -4.4648    0.0000 C   0  0  0  0  0  0  0  0  0  0  0  0
    4.4487   -3.6284    0.0000 C   0  0  0  0  0  0  0  0  0  0  0  0
    4.4487   -2.6284    0.0000 C   0  0  0  0  0  0  0  0  0  0  0  0
    5.3147   -2.1284    0.0000 C   0  0  0  0  0  0  0  0  0  0  0  0
    3.5827   -2.1284    0.0000 C   0  0  0  0  0  0  0  0  0  0  0  0
    5.3147   -1.1284    0.0000 C   0  0  0  0  0  0  0  0  0  0  0  0
    3.5827   -1.1284    0.0000 C   0  0  0  0  0  0  0  0  0  0  0  0
    4.4487   -0.6284    0.0000 C   0  0  0  0  0  0  0  0  0  0  0  0
    4.4487    0.3716    0.0000 C   0  0  0  0  0  0  0  0  0  0  0  0
    5.3147    1.8716    0.0000 C   0  0  0  0  0  0  0  0  0  0  0  0
    4.4487    2.3716    0.0000 C   0  0  0  0  0  0  0  0  0  0  0  0
    6.1808    2.3716    0.0000 C   0  0  0  0  0  0  0  0  0  0  0  0
    4.4487    3.3716    0.0000 C   0  0  0  0  0  0  0  0  0  0  0  0
    6.1808    3.3716    0.0000 C   0  0  0  0  0  0  0  0  0  0  0  0
    5.3147    3.8716    0.0000 C   0  0  0  0  0  0  0  0  0  0  0  0
    4.3258   -4.7976    0.0000 H   0  0  0  0  0  0  0  0  0  0  0  0
    2.6035   -5.4085    0.0000 H   0  0  0  0  0  0  0  0  0  0  0  0
    3.4151   -5.2360    0.0000 H   0  0  0  0  0  0  0  0  0  0  0  0
    3.6491   -3.0102    0.0000 H   0  0  0  0  0  0  0  0  0  0  0  0
    2.8911   -2.6728    0.0000 H   0  0  0  0  0  0  0  0  0  0  0  0
    1.3936   -4.3359    0.0000 H   0  0  0  0  0  0  0  0  0  0  0  0
    1.8084   -5.0545    0.0000 H   0  0  0  0  0  0  0  0  0  0  0  0
    2.0397   -2.8537    0.0000 H   0  0  0  0  0  0  0  0  0  0  0  0
    1.4845   -3.4703    0.0000 H   0  0  0  0  0  0  0  0  0  0  0  0
    4.6608   -4.2110    0.0000 H   0  0  0  0  0  0  0  0  0  0  0  0
    5.0593   -3.5208    0.0000 H   0  0  0  0  0  0  0  0  0  0  0  0
    5.8517   -2.4384    0.0000 H   0  0  0  0  0  0  0  0  0  0  0  0
    3.0457   -2.4384    0.0000 H   0  0  0  0  0  0  0  0  0  0  0  0
    5.8517   -0.8184    0.0000 H   0  0  0  0  0  0  0  0  0  0  0  0
    3.0457   -0.8184    0.0000 H   0  0  0  0  0  0  0  0  0  0  0  0
    5.8517    0.5616    0.0000 H   0  0  0  0  0  0  0  0  0  0  0  0
    3.9118    2.0616    0.0000 H   0  0  0  0  0  0  0  0  0  0  0  0
    6.7177    2.0616    0.0000 H   0  0  0  0  0  0  0  0  0  0  0  0
    3.9118    3.6816    0.0000 H   0  0  0  0  0  0  0  0  0  0  0  0
    6.7177    3.6816    0.0000 H   0  0  0  0  0  0  0  0  0  0  0  0
  1 22  1  0  0  0  0
  2 16  2  0  0  0  0
  3  5  1  0  0  0  0
  3  6  1  0  0  0  0
  3  9  1  0  0  0  0
  3 23  1  0  0  0  0
  4 16  1  0  0  0  0
  4 17  1  0  0  0  0
  4 38  1  0  0  0  0
  5  7  1  0  0  0  0
  5 26  1  0  0  0  0
  5 27  1  0  0  0  0
  6  8  1  0  0  0  0
  6 24  1  0  0  0  0
  6 25  1  0  0  0  0
  7  8  1  0  0  0  0
  7 30  1  0  0  0  0
  7 31  1  0  0  0  0
  8 28  1  0  0  0  0
  8 29  1  0  0  0  0
  9 10  1  0  0  0  0
  9 32  1  0  0  0  0
  9 33  1  0  0  0  0
 10 11  2  0  0  0  0
 10 12  1  0  0  0  0
 11 13  1  0  0  0  0
 11 34  1  0  0  0  0
 12 14  2  0  0  0  0
 12 35  1  0  0  0  0
 13 15  2  0  0  0  0
 13 36  1  0  0  0  0
 14 15  1  0  0  0  0
 14 37  1  0  0  0  0
 15 16  1  0  0  0  0
 17 18  2  0  0  0  0
 17 19  1  0  0  0  0
 18 20  1  0  0  0  0
 18 39  1  0  0  0  0
 19 21  2  0  0  0  0
 19 40  1  0  0  0  0
 20 22  2  0  0  0  0
 20 41  1  0  0  0  0
 21 22  1  0  0  0  0
 21 42  1  0  0  0  0
M  CHG  1   3   1
M  END
> <PUBCHEM_COMPOUND_CID>
51476269

> <PUBCHEM_COMPOUND_CANONICALIZED>
1

> <PUBCHEM_CACTVS_COMPLEXITY>
354

> <PUBCHEM_CACTVS_HBOND_ACCEPTOR>
1

> <PUBCHEM_CACTVS_HBOND_DONOR>
2

> <PUBCHEM_CACTVS_ROTATABLE_BOND>
4

> <PUBCHEM_CACTVS_SUBSKEYS>
AAADceB7IAAAAgAAAAAAAAAAAAAAAWAAAAAwYAAAAAAAAAABQAAAHgAwAAAADAjDmAQwwIPAAACIAiVSUACCAAAlAgAIiIEIZMgIIDLAlZGEIQhglADIyYcYiACOQAAAAAAAAACAAAAAAAAAAAAAAAAAAA==

> <PUBCHEM_IUPAC_OPENEYE_NAME>
N-(4-iodophenyl)-4-(pyrrolidin-1-ium-1-ylmethyl)benzamide

> <PUBCHEM_IUPAC_CAS_NAME>
N-(4-iodophenyl)-4-(1-pyrrolidin-1-iumylmethyl)benzamide

> <PUBCHEM_IUPAC_NAME>
N-(4-iodophenyl)-4-(pyrrolidin-1-ium-1-ylmethyl)benzamide

> <PUBCHEM_IUPAC_SYSTEMATIC_NAME>
N-(4-iodophenyl)-4-(pyrrolidin-1-ium-1-ylmethyl)benzamide

> <PUBCHEM_IUPAC_TRADITIONAL_NAME>
N-(4-iodophenyl)-4-(pyrrolidin-1-ium-1-ylmethyl)benzamide

> <PUBCHEM_IUPAC_INCHI>
InChI=1S/C18H19IN2O/c19-16-7-9-17(10-8-16)20-18(22)15-5-3-14(4-6-15)13-21-11-1-2-12-21/h3-10H,1-2,11-13H2,(H,20,22)/p+1

> <PUBCHEM_IUPAC_INCHIKEY>
HRVDIWMDFVAJSK-UHFFFAOYSA-O

> <PUBCHEM_XLOGP3>
3.1

> <PUBCHEM_EXACT_MASS>
407.062036

> <PUBCHEM_MOLECULAR_FORMULA>
C18H20IN2O+

> <PUBCHEM_MOLECULAR_WEIGHT>
407.26867

> <PUBCHEM_OPENEYE_CAN_SMILES>
C1CC[NH+](C1)CC2=CC=C(C=C2)C(=O)NC3=CC=C(C=C3)I

> <PUBCHEM_OPENEYE_ISO_SMILES>
C1CC[NH+](C1)CC2=CC=C(C=C2)C(=O)NC3=CC=C(C=C3)I

> <PUBCHEM_CACTVS_TPSA>
33.5

> <PUBCHEM_MONOISOTOPIC_WEIGHT>
407.062036

> <PUBCHEM_TOTAL_CHARGE>
1

> <PUBCHEM_HEAVY_ATOM_COUNT>
22

> <PUBCHEM_ATOM_DEF_STEREO_COUNT>
0

> <PUBCHEM_ATOM_UDEF_STEREO_COUNT>
0

> <PUBCHEM_BOND_DEF_STEREO_COUNT>
0

> <PUBCHEM_BOND_UDEF_STEREO_COUNT>
0

> <PUBCHEM_ISOTOPIC_ATOM_COUNT>
0

> <PUBCHEM_COMPONENT_COUNT>
1

> <PUBCHEM_CACTVS_TAUTO_COUNT>
2

> <PUBCHEM_COORDINATE_TYPE>
1
5
255

> <PUBCHEM_BONDANNOTATIONS>
10  11  8
10  12  8
11  13  8
12  14  8
13  15  8
14  15  8
17  18  8
17  19  8
18  20  8
19  21  8
20  22  8
21  22  8

$$$$
51477465
  -OEChem-11301218002D

 41 43  0     0  0  0  0  0  0999 V2000
    5.0981    0.6830    0.0000 O   0  0  0  0  0  0  0  0  0  0  0  0
    3.3660   -2.3170    0.0000 N   0  3  0  0  0  0  0  0  0  0  0  0
    3.3660    0.6830    0.0000 N   0  0  0  0  0  0  0  0  0  0  0  0
    4.2320    2.1830    0.0000 N   0  0  0  0  0  0  0  0  0  0  0  0
    2.8660   -3.1830    0.0000 C   0  0  0  0  0  0  0  0  0  0  0  0
    2.0000   -3.6830    0.0000 C   0  0  0  0  0  0  0  0  0  0  0  0
    2.8660   -4.1830    0.0000 C   0  0  0  0  0  0  0  0  0  0  0  0
    2.5000   -1.8170    0.0000 C   0  0  0  0  0  0  0  0  0  0  0  0
    4.2320   -1.8170    0.0000 C   0  0  0  0  0  0  0  0  0  0  0  0
    2.5000   -0.8170    0.0000 C   0  0  0  0  0  0  0  0  0  0  0  0
    4.2320   -0.8170    0.0000 C   0  0  0  0  0  0  0  0  0  0  0  0
    3.3660   -0.3170    0.0000 C   0  0  0  0  0  0  0  0  0  0  0  0
    4.2320    1.1830    0.0000 C   0  0  0  0  0  0  0  0  0  0  0  0
    5.0981    2.6830    0.0000 C   0  0  0  0  0  0  0  0  0  0  0  0
    5.0981    3.6830    0.0000 C   0  0  0  0  0  0  0  0  0  0  0  0
    5.9641    2.1830    0.0000 C   0  0  0  0  0  0  0  0  0  0  0  0
    5.9641    4.1830    0.0000 C   0  0  0  0  0  0  0  0  0  0  0  0
    6.8301    2.6830    0.0000 C   0  0  0  0  0  0  0  0  0  0  0  0
    6.8301    3.6830    0.0000 C   0  0  0  0  0  0  0  0  0  0  0  0
    3.4649   -3.3435    0.0000 H   0  0  0  0  0  0  0  0  0  0  0  0
    3.6760   -2.8539    0.0000 H   0  0  0  0  0  0  0  0  0  0  0  0
    1.6015   -3.2081    0.0000 H   0  0  0  0  0  0  0  0  0  0  0  0
    1.6015   -4.1580    0.0000 H   0  0  0  0  0  0  0  0  0  0  0  0
    2.6540   -4.7656    0.0000 H   0  0  0  0  0  0  0  0  0  0  0  0
    3.4766   -4.2907    0.0000 H   0  0  0  0  0  0  0  0  0  0  0  0
    1.8894   -1.7093    0.0000 H   0  0  0  0  0  0  0  0  0  0  0  0
    2.2880   -2.3996    0.0000 H   0  0  0  0  0  0  0  0  0  0  0  0
    4.4441   -2.3996    0.0000 H   0  0  0  0  0  0  0  0  0  0  0  0
    4.8426   -1.7093    0.0000 H   0  0  0  0  0  0  0  0  0  0  0  0
    2.2880   -0.2344    0.0000 H   0  0  0  0  0  0  0  0  0  0  0  0
    1.8894   -0.9246    0.0000 H   0  0  0  0  0  0  0  0  0  0  0  0
    4.8426   -0.9246    0.0000 H   0  0  0  0  0  0  0  0  0  0  0  0
    4.4441   -0.2344    0.0000 H   0  0  0  0  0  0  0  0  0  0  0  0
    3.9030   -0.0070    0.0000 H   0  0  0  0  0  0  0  0  0  0  0  0
    2.8291    0.9930    0.0000 H   0  0  0  0  0  0  0  0  0  0  0  0
    3.6951    2.4930    0.0000 H   0  0  0  0  0  0  0  0  0  0  0  0
    4.5611    3.9930    0.0000 H   0  0  0  0  0  0  0  0  0  0  0  0
    5.9641    1.5630    0.0000 H   0  0  0  0  0  0  0  0  0  0  0  0
    5.9641    4.8030    0.0000 H   0  0  0  0  0  0  0  0  0  0  0  0
    7.3671    2.3730    0.0000 H   0  0  0  0  0  0  0  0  0  0  0  0
    7.3671    3.9930    0.0000 H   0  0  0  0  0  0  0  0  0  0  0  0
  1 13  2  0  0  0  0
  2  5  1  0  0  0  0
  2  8  1  0  0  0  0
  2  9  1  0  0  0  0
  2 21  1  0  0  0  0
  3 12  1  0  0  0  0
  3 13  1  0  0  0  0
  3 35  1  0  0  0  0
  4 13  1  0  0  0  0
  4 14  1  0  0  0  0
  4 36  1  0  0  0  0
  5  6  1  0  0  0  0
  5  7  1  0  0  0  0
  5 20  1  0  0  0  0
  6  7  1  0  0  0  0
  6 22  1  0  0  0  0
  6 23  1  0  0  0  0
  7 24  1  0  0  0  0
  7 25  1  0  0  0  0
  8 10  1  0  0  0  0
  8 26  1  0  0  0  0
  8 27  1  0  0  0  0
  9 11  1  0  0  0  0
  9 28  1  0  0  0  0
  9 29  1  0  0  0  0
 10 12  1  0  0  0  0
 10 30  1  0  0  0  0
 10 31  1  0  0  0  0
 11 12  1  0  0  0  0
 11 32  1  0  0  0  0
 11 33  1  0  0  0  0
 12 34  1  0  0  0  0
 14 15  2  0  0  0  0
 14 16  1  0  0  0  0
 15 17  1  0  0  0  0
 15 37  1  0  0  0  0
 16 18  2  0  0  0  0
 16 38  1  0  0  0  0
 17 19  2  0  0  0  0
 17 39  1  0  0  0  0
 18 19  1  0  0  0  0
 18 40  1  0  0  0  0
 19 41  1  0  0  0  0
M  CHG  1   2   1
M  END
> <PUBCHEM_COMPOUND_CID>
51477465

> <PUBCHEM_COMPOUND_CANONICALIZED>
1

> <PUBCHEM_CACTVS_COMPLEXITY>
303

> <PUBCHEM_CACTVS_HBOND_ACCEPTOR>
1

> <PUBCHEM_CACTVS_HBOND_DONOR>
3

> <PUBCHEM_CACTVS_ROTATABLE_BOND>
3

> <PUBCHEM_CACTVS_SUBSKEYS>
AAADceBzIAAAAAAAAAAAAAAAGAAAAAAAAAA8QAAAAAAAAAABAAAAHgAQAAAACCjBEAQxwIPAAACIACRCUACCAAAhAgAIiIAIZIiIICLA0ZGEIAholgLIyCcQAAAAAAAAAAAAAAAAAAAAAAAAAAAAAAAAAA==

> <PUBCHEM_IUPAC_OPENEYE_NAME>
1-(1-cyclopropylpiperidin-1-ium-4-yl)-3-phenyl-urea

> <PUBCHEM_IUPAC_CAS_NAME>
1-(1-cyclopropyl-4-piperidin-1-iumyl)-3-phenylurea

> <PUBCHEM_IUPAC_NAME>
1-(1-cyclopropylpiperidin-1-ium-4-yl)-3-phenylurea

> <PUBCHEM_IUPAC_SYSTEMATIC_NAME>
1-(1-cyclopropylpiperidin-1-ium-4-yl)-3-phenyl-urea

> <PUBCHEM_IUPAC_TRADITIONAL_NAME>
1-(1-cyclopropylpiperidin-1-ium-4-yl)-3-phenyl-urea

> <PUBCHEM_IUPAC_INCHI>
InChI=1S/C15H21N3O/c19-15(16-12-4-2-1-3-5-12)17-13-8-10-18(11-9-13)14-6-7-14/h1-5,13-14H,6-11H2,(H2,16,17,19)/p+1

> <PUBCHEM_IUPAC_INCHIKEY>
LHWURLPACUHVSR-UHFFFAOYSA-O

> <PUBCHEM_XLOGP3>
2.2

> <PUBCHEM_EXACT_MASS>
260.176287

> <PUBCHEM_MOLECULAR_FORMULA>
C15H22N3O+

> <PUBCHEM_MOLECULAR_WEIGHT>
260.35468

> <PUBCHEM_OPENEYE_CAN_SMILES>
C1CC1[NH+]2CCC(CC2)NC(=O)NC3=CC=CC=C3

> <PUBCHEM_OPENEYE_ISO_SMILES>
C1CC1[NH+]2CCC(CC2)NC(=O)NC3=CC=CC=C3

> <PUBCHEM_CACTVS_TPSA>
45.6

> <PUBCHEM_MONOISOTOPIC_WEIGHT>
260.176287

> <PUBCHEM_TOTAL_CHARGE>
1

> <PUBCHEM_HEAVY_ATOM_COUNT>
19

> <PUBCHEM_ATOM_DEF_STEREO_COUNT>
0

> <PUBCHEM_ATOM_UDEF_STEREO_COUNT>
0

> <PUBCHEM_BOND_DEF_STEREO_COUNT>
0

> <PUBCHEM_BOND_UDEF_STEREO_COUNT>
0

> <PUBCHEM_ISOTOPIC_ATOM_COUNT>
0

> <PUBCHEM_COMPONENT_COUNT>
1

> <PUBCHEM_CACTVS_TAUTO_COUNT>
3

> <PUBCHEM_COORDINATE_TYPE>
1
5
255

> <PUBCHEM_BONDANNOTATIONS>
14  15  8
14  16  8
15  17  8
16  18  8
17  19  8
18  19  8

$$$$
51491575
  -OEChem-11301218012D

 25 26  0     1  0  0  0  0  0999 V2000
    5.9674    1.3744    0.0000 N   0  3  0  0  0  0  0  0  0  0  0  0
    4.6783   -1.3918    0.0000 N   0  0  0  0  0  0  0  0  0  0  0  0
    4.9889    1.1682    0.0000 C   0  0  1  0  0  0  0  0  0  0  0  0
    4.6783    0.2177    0.0000 C   0  0  0  0  0  0  0  0  0  0  0  0
    3.7320   -0.0870    0.0000 C   0  0  0  0  0  0  0  0  0  0  0  0
    3.7320   -1.0870    0.0000 C   0  0  0  0  0  0  0  0  0  0  0  0
    5.2619   -0.5870    0.0000 C   0  0  0  0  0  0  0  0  0  0  0  0
    4.3211    1.9125    0.0000 C   0  0  0  0  0  0  0  0  0  0  0  0
    2.8660    0.4130    0.0000 C   0  0  0  0  0  0  0  0  0  0  0  0
    2.8660   -1.5870    0.0000 C   0  0  0  0  0  0  0  0  0  0  0  0
    2.0000   -0.0870    0.0000 C   0  0  0  0  0  0  0  0  0  0  0  0
    2.0000   -1.0870    0.0000 C   0  0  0  0  0  0  0  0  0  0  0  0
    5.1815    1.7575    0.0000 H   0  0  0  0  0  0  0  0  0  0  0  0
    5.8819   -0.5870    0.0000 H   0  0  0  0  0  0  0  0  0  0  0  0
    6.5741    1.5023    0.0000 H   0  0  0  0  0  0  0  0  0  0  0  0
    5.8396    1.9811    0.0000 H   0  0  0  0  0  0  0  0  0  0  0  0
    6.0953    0.7678    0.0000 H   0  0  0  0  0  0  0  0  0  0  0  0
    4.7826    2.3266    0.0000 H   0  0  0  0  0  0  0  0  0  0  0  0
    3.9070    2.3740    0.0000 H   0  0  0  0  0  0  0  0  0  0  0  0
    3.8596    1.4984    0.0000 H   0  0  0  0  0  0  0  0  0  0  0  0
    4.8709   -1.9811    0.0000 H   0  0  0  0  0  0  0  0  0  0  0  0
    2.8660    1.0330    0.0000 H   0  0  0  0  0  0  0  0  0  0  0  0
    2.8660   -2.2070    0.0000 H   0  0  0  0  0  0  0  0  0  0  0  0
    1.4631    0.2230    0.0000 H   0  0  0  0  0  0  0  0  0  0  0  0
    1.4631   -1.3970    0.0000 H   0  0  0  0  0  0  0  0  0  0  0  0
  3  1  1  1  0  0  0
  1 15  1  0  0  0  0
  1 16  1  0  0  0  0
  1 17  1  0  0  0  0
  2  6  1  0  0  0  0
  2  7  1  0  0  0  0
  2 21  1  0  0  0  0
  3  4  1  0  0  0  0
  3  8  1  0  0  0  0
  3 13  1  0  0  0  0
  4  5  1  0  0  0  0
  4  7  2  0  0  0  0
  5  6  1  0  0  0  0
  5  9  2  0  0  0  0
  6 10  2  0  0  0  0
  7 14  1  0  0  0  0
  8 18  1  0  0  0  0
  8 19  1  0  0  0  0
  8 20  1  0  0  0  0
  9 11  1  0  0  0  0
  9 22  1  0  0  0  0
 10 12  1  0  0  0  0
 10 23  1  0  0  0  0
 11 12  2  0  0  0  0
 11 24  1  0  0  0  0
 12 25  1  0  0  0  0
M  CHG  1   1   1
M  END
> <PUBCHEM_COMPOUND_CID>
51491575

> <PUBCHEM_COMPOUND_CANONICALIZED>
1

> <PUBCHEM_CACTVS_COMPLEXITY>
158

> <PUBCHEM_CACTVS_HBOND_ACCEPTOR>
0

> <PUBCHEM_CACTVS_HBOND_DONOR>
2

> <PUBCHEM_CACTVS_ROTATABLE_BOND>
1

> <PUBCHEM_CACTVS_SUBSKEYS>
AAADccBzAAAAAAAAAAAAAAAAAAAAAWAAAAAwAAAAAAAAAFgB8AAAHAAQAAAADCjBHgQ+wPLJkACgAzRnRACCgCAxAiAI2aA4ZJgIIOLA0ZGEIAhgkADIyAcQgMAOgAAAAAACAAAAAAAAAAQAAAAAAAAAAA==

> <PUBCHEM_IUPAC_OPENEYE_NAME>
[(1R)-1-(1H-indol-3-yl)ethyl]ammonium

> <PUBCHEM_IUPAC_CAS_NAME>
[(1R)-1-(1H-indol-3-yl)ethyl]ammonium

> <PUBCHEM_IUPAC_NAME>
[(1R)-1-(1H-indol-3-yl)ethyl]azanium

> <PUBCHEM_IUPAC_SYSTEMATIC_NAME>
[(1R)-1-(1H-indol-3-yl)ethyl]azanium

> <PUBCHEM_IUPAC_TRADITIONAL_NAME>
[(1R)-1-(1H-indol-3-yl)ethyl]ammonium

> <PUBCHEM_IUPAC_INCHI>
InChI=1S/C10H12N2/c1-7(11)9-6-12-10-5-3-2-4-8(9)10/h2-7,12H,11H2,1H3/p+1/t7-/m1/s1

> <PUBCHEM_IUPAC_INCHIKEY>
VBNMNLNTLNOVIT-SSDOTTSWSA-O

> <PUBCHEM_XLOGP3>
1.5

> <PUBCHEM_EXACT_MASS>
161.107873

> <PUBCHEM_MOLECULAR_FORMULA>
C10H13N2+

> <PUBCHEM_MOLECULAR_WEIGHT>
161.22362

> <PUBCHEM_OPENEYE_CAN_SMILES>
CC(C1=CNC2=CC=CC=C21)[NH3+]

> <PUBCHEM_OPENEYE_ISO_SMILES>
C[C@H](C1=CNC2=CC=CC=C21)[NH3+]

> <PUBCHEM_CACTVS_TPSA>
43.4

> <PUBCHEM_MONOISOTOPIC_WEIGHT>
161.107873

> <PUBCHEM_TOTAL_CHARGE>
1

> <PUBCHEM_HEAVY_ATOM_COUNT>
12

> <PUBCHEM_ATOM_DEF_STEREO_COUNT>
1

> <PUBCHEM_ATOM_UDEF_STEREO_COUNT>
0

> <PUBCHEM_BOND_DEF_STEREO_COUNT>
0

> <PUBCHEM_BOND_UDEF_STEREO_COUNT>
0

> <PUBCHEM_ISOTOPIC_ATOM_COUNT>
0

> <PUBCHEM_COMPONENT_COUNT>
1

> <PUBCHEM_CACTVS_TAUTO_COUNT>
1

> <PUBCHEM_COORDINATE_TYPE>
1
5
255

> <PUBCHEM_BONDANNOTATIONS>
3  1  5
10  12  8
11  12  8
2  6  8
2  7  8
4  5  8
4  7  8
5  6  8
5  9  8
6  10  8
9  11  8

$$$$
51491576
  -OEChem-11301218012D

 24 25  0     1  0  0  0  0  0999 V2000
    4.6783   -1.3831    0.0000 N   0  0  0  0  0  0  0  0  0  0  0  0
    5.9674    1.3831    0.0000 N   0  0  0  0  0  0  0  0  0  0  0  0
    4.6783    0.2264    0.0000 C   0  0  0  0  0  0  0  0  0  0  0  0
    4.9889    1.1769    0.0000 C   0  0  1  0  0  0  0  0  0  0  0  0
    3.7320   -0.0784    0.0000 C   0  0  0  0  0  0  0  0  0  0  0  0
    3.7320   -1.0784    0.0000 C   0  0  0  0  0  0  0  0  0  0  0  0
    5.2619   -0.5784    0.0000 C   0  0  0  0  0  0  0  0  0  0  0  0
    4.3211    1.9212    0.0000 C   0  0  0  0  0  0  0  0  0  0  0  0
    2.8660    0.4216    0.0000 C   0  0  0  0  0  0  0  0  0  0  0  0
    2.8660   -1.5784    0.0000 C   0  0  0  0  0  0  0  0  0  0  0  0
    2.0000   -0.0784    0.0000 C   0  0  0  0  0  0  0  0  0  0  0  0
    2.0000   -1.0784    0.0000 C   0  0  0  0  0  0  0  0  0  0  0  0
    5.1815    1.7662    0.0000 H   0  0  0  0  0  0  0  0  0  0  0  0
    5.8819   -0.5784    0.0000 H   0  0  0  0  0  0  0  0  0  0  0  0
    4.8709   -1.9724    0.0000 H   0  0  0  0  0  0  0  0  0  0  0  0
    4.7826    2.3352    0.0000 H   0  0  0  0  0  0  0  0  0  0  0  0
    3.9070    2.3826    0.0000 H   0  0  0  0  0  0  0  0  0  0  0  0
    3.8596    1.5071    0.0000 H   0  0  0  0  0  0  0  0  0  0  0  0
    2.8660    1.0416    0.0000 H   0  0  0  0  0  0  0  0  0  0  0  0
    2.8660   -2.1984    0.0000 H   0  0  0  0  0  0  0  0  0  0  0  0
    6.1600    1.9724    0.0000 H   0  0  0  0  0  0  0  0  0  0  0  0
    6.3815    0.9216    0.0000 H   0  0  0  0  0  0  0  0  0  0  0  0
    1.4631    0.2316    0.0000 H   0  0  0  0  0  0  0  0  0  0  0  0
    1.4631   -1.3884    0.0000 H   0  0  0  0  0  0  0  0  0  0  0  0
  1  6  1  0  0  0  0
  1  7  1  0  0  0  0
  1 15  1  0  0  0  0
  4  2  1  1  0  0  0
  2 21  1  0  0  0  0
  2 22  1  0  0  0  0
  3  4  1  0  0  0  0
  3  5  1  0  0  0  0
  3  7  2  0  0  0  0
  4  8  1  0  0  0  0
  4 13  1  0  0  0  0
  5  6  1  0  0  0  0
  5  9  2  0  0  0  0
  6 10  2  0  0  0  0
  7 14  1  0  0  0  0
  8 16  1  0  0  0  0
  8 17  1  0  0  0  0
  8 18  1  0  0  0  0
  9 11  1  0  0  0  0
  9 19  1  0  0  0  0
 10 12  1  0  0  0  0
 10 20  1  0  0  0  0
 11 12  2  0  0  0  0
 11 23  1  0  0  0  0
 12 24  1  0  0  0  0
M  END
> <PUBCHEM_COMPOUND_CID>
51491576

> <PUBCHEM_COMPOUND_CANONICALIZED>
1

> <PUBCHEM_CACTVS_COMPLEXITY>
158

> <PUBCHEM_CACTVS_HBOND_ACCEPTOR>
1

> <PUBCHEM_CACTVS_HBOND_DONOR>
2

> <PUBCHEM_CACTVS_ROTATABLE_BOND>
1

> <PUBCHEM_CACTVS_SUBSKEYS>
AAADccBzAAAAAAAAAAAAAAAAAAAAAWAAAAAwAAAAAAAAAFgB8AAAHAAQAAAADCjBHgQ+wPLJkACgAzRnRACCgCAxAiAI2aA4ZJgIIOLA0ZGEIAhgkADIyAcQgMAOgAAAAAACAAAAAAAAAAQAAAAAAAAAAA==

> <PUBCHEM_IUPAC_OPENEYE_NAME>
(1R)-1-(1H-indol-3-yl)ethanamine

> <PUBCHEM_IUPAC_CAS_NAME>
(1R)-1-(1H-indol-3-yl)ethanamine

> <PUBCHEM_IUPAC_NAME>
(1R)-1-(1H-indol-3-yl)ethanamine

> <PUBCHEM_IUPAC_SYSTEMATIC_NAME>
(1R)-1-(1H-indol-3-yl)ethanamine

> <PUBCHEM_IUPAC_TRADITIONAL_NAME>
[(1R)-1-(1H-indol-3-yl)ethyl]amine

> <PUBCHEM_IUPAC_INCHI>
InChI=1S/C10H12N2/c1-7(11)9-6-12-10-5-3-2-4-8(9)10/h2-7,12H,11H2,1H3/t7-/m1/s1

> <PUBCHEM_IUPAC_INCHIKEY>
VBNMNLNTLNOVIT-SSDOTTSWSA-N

> <PUBCHEM_XLOGP3>
1.5

> <PUBCHEM_EXACT_MASS>
160.100048

> <PUBCHEM_MOLECULAR_FORMULA>
C10H12N2

> <PUBCHEM_MOLECULAR_WEIGHT>
160.21568

> <PUBCHEM_OPENEYE_CAN_SMILES>
CC(C1=CNC2=CC=CC=C21)N

> <PUBCHEM_OPENEYE_ISO_SMILES>
C[C@H](C1=CNC2=CC=CC=C21)N

> <PUBCHEM_CACTVS_TPSA>
41.8

> <PUBCHEM_MONOISOTOPIC_WEIGHT>
160.100048

> <PUBCHEM_TOTAL_CHARGE>
0

> <PUBCHEM_HEAVY_ATOM_COUNT>
12

> <PUBCHEM_ATOM_DEF_STEREO_COUNT>
1

> <PUBCHEM_ATOM_UDEF_STEREO_COUNT>
0

> <PUBCHEM_BOND_DEF_STEREO_COUNT>
0

> <PUBCHEM_BOND_UDEF_STEREO_COUNT>
0

> <PUBCHEM_ISOTOPIC_ATOM_COUNT>
0

> <PUBCHEM_COMPONENT_COUNT>
1

> <PUBCHEM_CACTVS_TAUTO_COUNT>
1

> <PUBCHEM_COORDINATE_TYPE>
1
5
255

> <PUBCHEM_BONDANNOTATIONS>
1  6  8
1  7  8
10  12  8
11  12  8
4  2  5
3  5  8
3  7  8
5  6  8
5  9  8
6  10  8
9  11  8

$$$$
51491577
  -OEChem-11301218012D

 25 26  0     1  0  0  0  0  0999 V2000
    5.9674    1.3744    0.0000 N   0  3  0  0  0  0  0  0  0  0  0  0
    4.6783   -1.3918    0.0000 N   0  0  0  0  0  0  0  0  0  0  0  0
    4.9889    1.1682    0.0000 C   0  0  2  0  0  0  0  0  0  0  0  0
    4.6783    0.2177    0.0000 C   0  0  0  0  0  0  0  0  0  0  0  0
    3.7320   -0.0870    0.0000 C   0  0  0  0  0  0  0  0  0  0  0  0
    3.7320   -1.0870    0.0000 C   0  0  0  0  0  0  0  0  0  0  0  0
    5.2619   -0.5870    0.0000 C   0  0  0  0  0  0  0  0  0  0  0  0
    4.3211    1.9125    0.0000 C   0  0  0  0  0  0  0  0  0  0  0  0
    2.8660    0.4130    0.0000 C   0  0  0  0  0  0  0  0  0  0  0  0
    2.8660   -1.5870    0.0000 C   0  0  0  0  0  0  0  0  0  0  0  0
    2.0000   -0.0870    0.0000 C   0  0  0  0  0  0  0  0  0  0  0  0
    2.0000   -1.0870    0.0000 C   0  0  0  0  0  0  0  0  0  0  0  0
    5.1815    1.7575    0.0000 H   0  0  0  0  0  0  0  0  0  0  0  0
    5.8819   -0.5870    0.0000 H   0  0  0  0  0  0  0  0  0  0  0  0
    6.5741    1.5023    0.0000 H   0  0  0  0  0  0  0  0  0  0  0  0
    5.8396    1.9811    0.0000 H   0  0  0  0  0  0  0  0  0  0  0  0
    6.0953    0.7678    0.0000 H   0  0  0  0  0  0  0  0  0  0  0  0
    4.7826    2.3266    0.0000 H   0  0  0  0  0  0  0  0  0  0  0  0
    3.9070    2.3740    0.0000 H   0  0  0  0  0  0  0  0  0  0  0  0
    3.8596    1.4984    0.0000 H   0  0  0  0  0  0  0  0  0  0  0  0
    4.8709   -1.9811    0.0000 H   0  0  0  0  0  0  0  0  0  0  0  0
    2.8660    1.0330    0.0000 H   0  0  0  0  0  0  0  0  0  0  0  0
    2.8660   -2.2070    0.0000 H   0  0  0  0  0  0  0  0  0  0  0  0
    1.4631    0.2230    0.0000 H   0  0  0  0  0  0  0  0  0  0  0  0
    1.4631   -1.3970    0.0000 H   0  0  0  0  0  0  0  0  0  0  0  0
  3  1  1  6  0  0  0
  1 15  1  0  0  0  0
  1 16  1  0  0  0  0
  1 17  1  0  0  0  0
  2  6  1  0  0  0  0
  2  7  1  0  0  0  0
  2 21  1  0  0  0  0
  3  4  1  0  0  0  0
  3  8  1  0  0  0  0
  3 13  1  0  0  0  0
  4  5  1  0  0  0  0
  4  7  2  0  0  0  0
  5  6  1  0  0  0  0
  5  9  2  0  0  0  0
  6 10  2  0  0  0  0
  7 14  1  0  0  0  0
  8 18  1  0  0  0  0
  8 19  1  0  0  0  0
  8 20  1  0  0  0  0
  9 11  1  0  0  0  0
  9 22  1  0  0  0  0
 10 12  1  0  0  0  0
 10 23  1  0  0  0  0
 11 12  2  0  0  0  0
 11 24  1  0  0  0  0
 12 25  1  0  0  0  0
M  CHG  1   1   1
M  END
> <PUBCHEM_COMPOUND_CID>
51491577

> <PUBCHEM_COMPOUND_CANONICALIZED>
1

> <PUBCHEM_CACTVS_COMPLEXITY>
158

> <PUBCHEM_CACTVS_HBOND_ACCEPTOR>
0

> <PUBCHEM_CACTVS_HBOND_DONOR>
2

> <PUBCHEM_CACTVS_ROTATABLE_BOND>
1

> <PUBCHEM_CACTVS_SUBSKEYS>
AAADccBzAAAAAAAAAAAAAAAAAAAAAWAAAAAwAAAAAAAAAFgB8AAAHAAQAAAADCjBHgQ+wPLJkACgAzRnRACCgCAxAiAI2aA4ZJgIIOLA0ZGEIAhgkADIyAcQgMAOgAAAAAACAAAAAAAAAAQAAAAAAAAAAA==

> <PUBCHEM_IUPAC_OPENEYE_NAME>
[(1S)-1-(1H-indol-3-yl)ethyl]ammonium

> <PUBCHEM_IUPAC_CAS_NAME>
[(1S)-1-(1H-indol-3-yl)ethyl]ammonium

> <PUBCHEM_IUPAC_NAME>
[(1S)-1-(1H-indol-3-yl)ethyl]azanium

> <PUBCHEM_IUPAC_SYSTEMATIC_NAME>
[(1S)-1-(1H-indol-3-yl)ethyl]azanium

> <PUBCHEM_IUPAC_TRADITIONAL_NAME>
[(1S)-1-(1H-indol-3-yl)ethyl]ammonium

> <PUBCHEM_IUPAC_INCHI>
InChI=1S/C10H12N2/c1-7(11)9-6-12-10-5-3-2-4-8(9)10/h2-7,12H,11H2,1H3/p+1/t7-/m0/s1

> <PUBCHEM_IUPAC_INCHIKEY>
VBNMNLNTLNOVIT-ZETCQYMHSA-O

> <PUBCHEM_XLOGP3>
1.5

> <PUBCHEM_EXACT_MASS>
161.107873

> <PUBCHEM_MOLECULAR_FORMULA>
C10H13N2+

> <PUBCHEM_MOLECULAR_WEIGHT>
161.22362

> <PUBCHEM_OPENEYE_CAN_SMILES>
CC(C1=CNC2=CC=CC=C21)[NH3+]

> <PUBCHEM_OPENEYE_ISO_SMILES>
C[C@@H](C1=CNC2=CC=CC=C21)[NH3+]

> <PUBCHEM_CACTVS_TPSA>
43.4

> <PUBCHEM_MONOISOTOPIC_WEIGHT>
161.107873

> <PUBCHEM_TOTAL_CHARGE>
1

> <PUBCHEM_HEAVY_ATOM_COUNT>
12

> <PUBCHEM_ATOM_DEF_STEREO_COUNT>
1

> <PUBCHEM_ATOM_UDEF_STEREO_COUNT>
0

> <PUBCHEM_BOND_DEF_STEREO_COUNT>
0

> <PUBCHEM_BOND_UDEF_STEREO_COUNT>
0

> <PUBCHEM_ISOTOPIC_ATOM_COUNT>
0

> <PUBCHEM_COMPONENT_COUNT>
1

> <PUBCHEM_CACTVS_TAUTO_COUNT>
1

> <PUBCHEM_COORDINATE_TYPE>
1
5
255

> <PUBCHEM_BONDANNOTATIONS>
3  1  6
10  12  8
11  12  8
2  6  8
2  7  8
4  5  8
4  7  8
5  6  8
5  9  8
6  10  8
9  11  8

$$$$
51491578
  -OEChem-11301218012D

 24 25  0     1  0  0  0  0  0999 V2000
    4.6783   -1.3831    0.0000 N   0  0  0  0  0  0  0  0  0  0  0  0
    5.9674    1.3831    0.0000 N   0  0  0  0  0  0  0  0  0  0  0  0
    4.6783    0.2264    0.0000 C   0  0  0  0  0  0  0  0  0  0  0  0
    4.9889    1.1769    0.0000 C   0  0  2  0  0  0  0  0  0  0  0  0
    3.7320   -0.0784    0.0000 C   0  0  0  0  0  0  0  0  0  0  0  0
    3.7320   -1.0784    0.0000 C   0  0  0  0  0  0  0  0  0  0  0  0
    5.2619   -0.5784    0.0000 C   0  0  0  0  0  0  0  0  0  0  0  0
    4.3211    1.9212    0.0000 C   0  0  0  0  0  0  0  0  0  0  0  0
    2.8660    0.4216    0.0000 C   0  0  0  0  0  0  0  0  0  0  0  0
    2.8660   -1.5784    0.0000 C   0  0  0  0  0  0  0  0  0  0  0  0
    2.0000   -0.0784    0.0000 C   0  0  0  0  0  0  0  0  0  0  0  0
    2.0000   -1.0784    0.0000 C   0  0  0  0  0  0  0  0  0  0  0  0
    5.1815    1.7662    0.0000 H   0  0  0  0  0  0  0  0  0  0  0  0
    5.8819   -0.5784    0.0000 H   0  0  0  0  0  0  0  0  0  0  0  0
    4.8709   -1.9724    0.0000 H   0  0  0  0  0  0  0  0  0  0  0  0
    4.7826    2.3352    0.0000 H   0  0  0  0  0  0  0  0  0  0  0  0
    3.9070    2.3826    0.0000 H   0  0  0  0  0  0  0  0  0  0  0  0
    3.8596    1.5071    0.0000 H   0  0  0  0  0  0  0  0  0  0  0  0
    2.8660    1.0416    0.0000 H   0  0  0  0  0  0  0  0  0  0  0  0
    2.8660   -2.1984    0.0000 H   0  0  0  0  0  0  0  0  0  0  0  0
    6.1600    1.9724    0.0000 H   0  0  0  0  0  0  0  0  0  0  0  0
    6.3815    0.9216    0.0000 H   0  0  0  0  0  0  0  0  0  0  0  0
    1.4631    0.2316    0.0000 H   0  0  0  0  0  0  0  0  0  0  0  0
    1.4631   -1.3884    0.0000 H   0  0  0  0  0  0  0  0  0  0  0  0
  1  6  1  0  0  0  0
  1  7  1  0  0  0  0
  1 15  1  0  0  0  0
  4  2  1  6  0  0  0
  2 21  1  0  0  0  0
  2 22  1  0  0  0  0
  3  4  1  0  0  0  0
  3  5  1  0  0  0  0
  3  7  2  0  0  0  0
  4  8  1  0  0  0  0
  4 13  1  0  0  0  0
  5  6  1  0  0  0  0
  5  9  2  0  0  0  0
  6 10  2  0  0  0  0
  7 14  1  0  0  0  0
  8 16  1  0  0  0  0
  8 17  1  0  0  0  0
  8 18  1  0  0  0  0
  9 11  1  0  0  0  0
  9 19  1  0  0  0  0
 10 12  1  0  0  0  0
 10 20  1  0  0  0  0
 11 12  2  0  0  0  0
 11 23  1  0  0  0  0
 12 24  1  0  0  0  0
M  END
> <PUBCHEM_COMPOUND_CID>
51491578

> <PUBCHEM_COMPOUND_CANONICALIZED>
1

> <PUBCHEM_CACTVS_COMPLEXITY>
158

> <PUBCHEM_CACTVS_HBOND_ACCEPTOR>
1

> <PUBCHEM_CACTVS_HBOND_DONOR>
2

> <PUBCHEM_CACTVS_ROTATABLE_BOND>
1

> <PUBCHEM_CACTVS_SUBSKEYS>
AAADccBzAAAAAAAAAAAAAAAAAAAAAWAAAAAwAAAAAAAAAFgB8AAAHAAQAAAADCjBHgQ+wPLJkACgAzRnRACCgCAxAiAI2aA4ZJgIIOLA0ZGEIAhgkADIyAcQgMAOgAAAAAACAAAAAAAAAAQAAAAAAAAAAA==

> <PUBCHEM_IUPAC_OPENEYE_NAME>
(1S)-1-(1H-indol-3-yl)ethanamine

> <PUBCHEM_IUPAC_CAS_NAME>
(1S)-1-(1H-indol-3-yl)ethanamine

> <PUBCHEM_IUPAC_NAME>
(1S)-1-(1H-indol-3-yl)ethanamine

> <PUBCHEM_IUPAC_SYSTEMATIC_NAME>
(1S)-1-(1H-indol-3-yl)ethanamine

> <PUBCHEM_IUPAC_TRADITIONAL_NAME>
[(1S)-1-(1H-indol-3-yl)ethyl]amine

> <PUBCHEM_IUPAC_INCHI>
InChI=1S/C10H12N2/c1-7(11)9-6-12-10-5-3-2-4-8(9)10/h2-7,12H,11H2,1H3/t7-/m0/s1

> <PUBCHEM_IUPAC_INCHIKEY>
VBNMNLNTLNOVIT-ZETCQYMHSA-N

> <PUBCHEM_XLOGP3>
1.5

> <PUBCHEM_EXACT_MASS>
160.100048

> <PUBCHEM_MOLECULAR_FORMULA>
C10H12N2

> <PUBCHEM_MOLECULAR_WEIGHT>
160.21568

> <PUBCHEM_OPENEYE_CAN_SMILES>
CC(C1=CNC2=CC=CC=C21)N

> <PUBCHEM_OPENEYE_ISO_SMILES>
C[C@@H](C1=CNC2=CC=CC=C21)N

> <PUBCHEM_CACTVS_TPSA>
41.8

> <PUBCHEM_MONOISOTOPIC_WEIGHT>
160.100048

> <PUBCHEM_TOTAL_CHARGE>
0

> <PUBCHEM_HEAVY_ATOM_COUNT>
12

> <PUBCHEM_ATOM_DEF_STEREO_COUNT>
1

> <PUBCHEM_ATOM_UDEF_STEREO_COUNT>
0

> <PUBCHEM_BOND_DEF_STEREO_COUNT>
0

> <PUBCHEM_BOND_UDEF_STEREO_COUNT>
0

> <PUBCHEM_ISOTOPIC_ATOM_COUNT>
0

> <PUBCHEM_COMPONENT_COUNT>
1

> <PUBCHEM_CACTVS_TAUTO_COUNT>
1

> <PUBCHEM_COORDINATE_TYPE>
1
5
255

> <PUBCHEM_BONDANNOTATIONS>
1  6  8
1  7  8
10  12  8
11  12  8
4  2  6
3  5  8
3  7  8
5  6  8
5  9  8
6  10  8
9  11  8

$$$$
