64065686
  -OEChem-11301218242D

 42 44  0     0  0  0  0  0  0999 V2000
    6.6353   -0.4923    0.0000 O   0  0  0  0  0  0  0  0  0  0  0  0
    6.2781    1.2025    0.0000 N   0  0  0  0  0  0  0  0  0  0  0  0
    4.6783   -2.5142    0.0000 N   0  0  0  0  0  0  0  0  0  0  0  0
    7.5673    2.3592    0.0000 C   0  0  0  0  0  0  0  0  0  0  0  0
    6.8994    3.1035    0.0000 C   0  0  0  0  0  0  0  0  0  0  0  0
    7.2566    1.4087    0.0000 C   0  0  0  0  0  0  0  0  0  0  0  0
    5.9209    2.8973    0.0000 C   0  0  0  0  0  0  0  0  0  0  0  0
    5.6103    1.9468    0.0000 C   0  0  0  0  0  0  0  0  0  0  0  0
    8.3116    3.0271    0.0000 C   0  0  0  0  0  0  0  0  0  0  0  0
    8.5178    2.0486    0.0000 C   0  0  0  0  0  0  0  0  0  0  0  0
    5.9674    0.2520    0.0000 C   0  0  0  0  0  0  0  0  0  0  0  0
    4.9889    0.0458    0.0000 C   0  0  0  0  0  0  0  0  0  0  0  0
    4.6783   -0.9048    0.0000 C   0  0  0  0  0  0  0  0  0  0  0  0
    3.7320   -1.2095    0.0000 C   0  0  0  0  0  0  0  0  0  0  0  0
    5.2619   -1.7095    0.0000 C   0  0  0  0  0  0  0  0  0  0  0  0
    3.7320   -2.2095    0.0000 C   0  0  0  0  0  0  0  0  0  0  0  0
    2.8660   -0.7095    0.0000 C   0  0  0  0  0  0  0  0  0  0  0  0
    2.8660   -2.7095    0.0000 C   0  0  0  0  0  0  0  0  0  0  0  0
    2.0000   -1.2095    0.0000 C   0  0  0  0  0  0  0  0  0  0  0  0
    2.0000   -2.2095    0.0000 C   0  0  0  0  0  0  0  0  0  0  0  0
    7.4258    3.4312    0.0000 H   0  0  0  0  0  0  0  0  0  0  0  0
    6.6682    3.6788    0.0000 H   0  0  0  0  0  0  0  0  0  0  0  0
    7.2772    0.7891    0.0000 H   0  0  0  0  0  0  0  0  0  0  0  0
    7.8704    1.3214    0.0000 H   0  0  0  0  0  0  0  0  0  0  0  0
    5.9004    3.5170    0.0000 H   0  0  0  0  0  0  0  0  0  0  0  0
    5.3071    2.9847    0.0000 H   0  0  0  0  0  0  0  0  0  0  0  0
    5.0633    2.2388    0.0000 H   0  0  0  0  0  0  0  0  0  0  0  0
    5.2277    1.4589    0.0000 H   0  0  0  0  0  0  0  0  0  0  0  0
    8.7256    2.5656    0.0000 H   0  0  0  0  0  0  0  0  0  0  0  0
    8.3252    1.4593    0.0000 H   0  0  0  0  0  0  0  0  0  0  0  0
    8.7730    3.4412    0.0000 H   0  0  0  0  0  0  0  0  0  0  0  0
    7.8975    3.4886    0.0000 H   0  0  0  0  0  0  0  0  0  0  0  0
    9.1071    1.8560    0.0000 H   0  0  0  0  0  0  0  0  0  0  0  0
    8.7104    2.6379    0.0000 H   0  0  0  0  0  0  0  0  0  0  0  0
    4.9684    0.6654    0.0000 H   0  0  0  0  0  0  0  0  0  0  0  0
    4.3751    0.1331    0.0000 H   0  0  0  0  0  0  0  0  0  0  0  0
    5.8819   -1.7095    0.0000 H   0  0  0  0  0  0  0  0  0  0  0  0
    4.8709   -3.1035    0.0000 H   0  0  0  0  0  0  0  0  0  0  0  0
    2.8660   -0.0895    0.0000 H   0  0  0  0  0  0  0  0  0  0  0  0
    2.8660   -3.3295    0.0000 H   0  0  0  0  0  0  0  0  0  0  0  0
    1.4631   -0.8995    0.0000 H   0  0  0  0  0  0  0  0  0  0  0  0
    1.4631   -2.5195    0.0000 H   0  0  0  0  0  0  0  0  0  0  0  0
  1 11  2  0  0  0  0
  2  6  1  0  0  0  0
  2  8  1  0  0  0  0
  2 11  1  0  0  0  0
  3 15  1  0  0  0  0
  3 16  1  0  0  0  0
  3 38  1  0  0  0  0
  4  5  1  0  0  0  0
  4  6  1  0  0  0  0
  4  9  1  0  0  0  0
  4 10  1  0  0  0  0
  5  7  1  0  0  0  0
  5 21  1  0  0  0  0
  5 22  1  0  0  0  0
  6 23  1  0  0  0  0
  6 24  1  0  0  0  0
  7  8  1  0  0  0  0
  7 25  1  0  0  0  0
  7 26  1  0  0  0  0
  8 27  1  0  0  0  0
  8 28  1  0  0  0  0
  9 29  1  0  0  0  0
  9 31  1  0  0  0  0
  9 32  1  0  0  0  0
 10 30  1  0  0  0  0
 10 33  1  0  0  0  0
 10 34  1  0  0  0  0
 11 12  1  0  0  0  0
 12 13  1  0  0  0  0
 12 35  1  0  0  0  0
 12 36  1  0  0  0  0
 13 14  1  0  0  0  0
 13 15  2  0  0  0  0
 14 16  1  0  0  0  0
 14 17  2  0  0  0  0
 15 37  1  0  0  0  0
 16 18  2  0  0  0  0
 17 19  1  0  0  0  0
 17 39  1  0  0  0  0
 18 20  1  0  0  0  0
 18 40  1  0  0  0  0
 19 20  2  0  0  0  0
 19 41  1  0  0  0  0
 20 42  1  0  0  0  0
M  END
> <PUBCHEM_COMPOUND_CID>
64065686

> <PUBCHEM_COMPOUND_CANONICALIZED>
1

> <PUBCHEM_CACTVS_COMPLEXITY>
366

> <PUBCHEM_CACTVS_HBOND_ACCEPTOR>
1

> <PUBCHEM_CACTVS_HBOND_DONOR>
1

> <PUBCHEM_CACTVS_ROTATABLE_BOND>
2

> <PUBCHEM_CACTVS_SUBSKEYS>
AAADceB7IAAAAAAAAAAAAAAAAAAAAWAAAAA8QAAAAAAAAFgB8AAAHgAQAAAADgjBngQ+wPPJkACoAzV3VACCgCAxAiAI2aE4ZJgIIPLAlZGEIAhglgDIyAccicCfgAAAAAACAAAAAAAAAAQAAAAAAAAAAA==

> <PUBCHEM_IUPAC_OPENEYE_NAME>
1-(3,3-dimethyl-1-piperidyl)-2-(1H-indol-3-yl)ethanone

> <PUBCHEM_IUPAC_CAS_NAME>
1-(3,3-dimethyl-1-piperidinyl)-2-(1H-indol-3-yl)ethanone

> <PUBCHEM_IUPAC_NAME>
1-(3,3-dimethylpiperidin-1-yl)-2-(1H-indol-3-yl)ethanone

> <PUBCHEM_IUPAC_SYSTEMATIC_NAME>
1-(3,3-dimethylpiperidin-1-yl)-2-(1H-indol-3-yl)ethanone

> <PUBCHEM_IUPAC_TRADITIONAL_NAME>
1-(3,3-dimethylpiperidino)-2-(1H-indol-3-yl)ethanone

> <PUBCHEM_IUPAC_INCHI>
InChI=1S/C17H22N2O/c1-17(2)8-5-9-19(12-17)16(20)10-13-11-18-15-7-4-3-6-14(13)15/h3-4,6-7,11,18H,5,8-10,12H2,1-2H3

> <PUBCHEM_IUPAC_INCHIKEY>
JDSGFWUXCPDVMZ-UHFFFAOYSA-N

> <PUBCHEM_XLOGP3>
3

> <PUBCHEM_EXACT_MASS>
270.173213

> <PUBCHEM_MOLECULAR_FORMULA>
C17H22N2O

> <PUBCHEM_MOLECULAR_WEIGHT>
270.36938

> <PUBCHEM_OPENEYE_CAN_SMILES>
CC1(CCCN(C1)C(=O)CC2=CNC3=CC=CC=C32)C

> <PUBCHEM_OPENEYE_ISO_SMILES>
CC1(CCCN(C1)C(=O)CC2=CNC3=CC=CC=C32)C

> <PUBCHEM_CACTVS_TPSA>
36.1

> <PUBCHEM_MONOISOTOPIC_WEIGHT>
270.173213

> <PUBCHEM_TOTAL_CHARGE>
0

> <PUBCHEM_HEAVY_ATOM_COUNT>
20

> <PUBCHEM_ATOM_DEF_STEREO_COUNT>
0

> <PUBCHEM_ATOM_UDEF_STEREO_COUNT>
0

> <PUBCHEM_BOND_DEF_STEREO_COUNT>
0

> <PUBCHEM_BOND_UDEF_STEREO_COUNT>
0

> <PUBCHEM_ISOTOPIC_ATOM_COUNT>
0

> <PUBCHEM_COMPONENT_COUNT>
1

> <PUBCHEM_CACTVS_TAUTO_COUNT>
1

> <PUBCHEM_COORDINATE_TYPE>
1
5
255

> <PUBCHEM_BONDANNOTATIONS>
13  14  8
13  15  8
14  16  8
14  17  8
16  18  8
17  19  8
18  20  8
19  20  8
3  15  8
3  16  8

$$$$
64065687
  -OEChem-11301218242D

 39 41  0     0  0  0  0  0  0999 V2000
    6.4641    1.1970    0.0000 O   0  0  0  0  0  0  0  0  0  0  0  0
    4.7320    1.1970    0.0000 N   0  0  0  0  0  0  0  0  0  0  0  0
    7.4103   -2.1077    0.0000 N   0  0  0  0  0  0  0  0  0  0  0  0
    3.0000    1.1970    0.0000 C   0  0  0  0  0  0  0  0  0  0  0  0
    3.0000    2.1970    0.0000 C   0  0  0  0  0  0  0  0  0  0  0  0
    3.8660    0.6970    0.0000 C   0  0  0  0  0  0  0  0  0  0  0  0
    3.8660    2.6970    0.0000 C   0  0  0  0  0  0  0  0  0  0  0  0
    4.7320    2.1970    0.0000 C   0  0  0  0  0  0  0  0  0  0  0  0
    2.0000    1.1970    0.0000 C   0  0  0  0  0  0  0  0  0  0  0  0
    2.5000    0.3310    0.0000 C   0  0  0  0  0  0  0  0  0  0  0  0
    5.5981    0.6970    0.0000 C   0  0  0  0  0  0  0  0  0  0  0  0
    5.5981   -0.3030    0.0000 C   0  0  0  0  0  0  0  0  0  0  0  0
    6.4641   -0.8030    0.0000 C   0  0  0  0  0  0  0  0  0  0  0  0
    4.7320   -0.8030    0.0000 C   0  0  0  0  0  0  0  0  0  0  0  0
    6.4641   -1.8030    0.0000 C   0  0  0  0  0  0  0  0  0  0  0  0
    7.4103   -0.4982    0.0000 C   0  0  0  0  0  0  0  0  0  0  0  0
    4.7320   -1.8030    0.0000 C   0  0  0  0  0  0  0  0  0  0  0  0
    5.5981   -2.3030    0.0000 C   0  0  0  0  0  0  0  0  0  0  0  0
    7.9939   -1.3030    0.0000 C   0  0  0  0  0  0  0  0  0  0  0  0
    2.7880    2.7796    0.0000 H   0  0  0  0  0  0  0  0  0  0  0  0
    2.3894    2.0894    0.0000 H   0  0  0  0  0  0  0  0  0  0  0  0
    3.4675    0.2221    0.0000 H   0  0  0  0  0  0  0  0  0  0  0  0
    4.2646    0.2221    0.0000 H   0  0  0  0  0  0  0  0  0  0  0  0
    4.2646    3.1720    0.0000 H   0  0  0  0  0  0  0  0  0  0  0  0
    3.4675    3.1720    0.0000 H   0  0  0  0  0  0  0  0  0  0  0  0
    5.3426    2.0894    0.0000 H   0  0  0  0  0  0  0  0  0  0  0  0
    4.9441    2.7796    0.0000 H   0  0  0  0  0  0  0  0  0  0  0  0
    2.0000    1.8170    0.0000 H   0  0  0  0  0  0  0  0  0  0  0  0
    1.9631    0.6410    0.0000 H   0  0  0  0  0  0  0  0  0  0  0  0
    2.1900   -0.2059    0.0000 H   0  0  0  0  0  0  0  0  0  0  0  0
    3.0369    0.0210    0.0000 H   0  0  0  0  0  0  0  0  0  0  0  0
    1.3800    1.1970    0.0000 H   0  0  0  0  0  0  0  0  0  0  0  0
    2.0000    0.5770    0.0000 H   0  0  0  0  0  0  0  0  0  0  0  0
    4.1951   -0.4930    0.0000 H   0  0  0  0  0  0  0  0  0  0  0  0
    7.6029    0.0911    0.0000 H   0  0  0  0  0  0  0  0  0  0  0  0
    4.1951   -2.1130    0.0000 H   0  0  0  0  0  0  0  0  0  0  0  0
    5.5981   -2.9230    0.0000 H   0  0  0  0  0  0  0  0  0  0  0  0
    7.6029   -2.6970    0.0000 H   0  0  0  0  0  0  0  0  0  0  0  0
    8.6139   -1.3030    0.0000 H   0  0  0  0  0  0  0  0  0  0  0  0
  1 11  2  0  0  0  0
  2  6  1  0  0  0  0
  2  8  1  0  0  0  0
  2 11  1  0  0  0  0
  3 15  1  0  0  0  0
  3 19  1  0  0  0  0
  3 38  1  0  0  0  0
  4  5  1  0  0  0  0
  4  6  1  0  0  0  0
  4  9  1  0  0  0  0
  4 10  1  0  0  0  0
  5  7  1  0  0  0  0
  5 20  1  0  0  0  0
  5 21  1  0  0  0  0
  6 22  1  0  0  0  0
  6 23  1  0  0  0  0
  7  8  1  0  0  0  0
  7 24  1  0  0  0  0
  7 25  1  0  0  0  0
  8 26  1  0  0  0  0
  8 27  1  0  0  0  0
  9 28  1  0  0  0  0
  9 32  1  0  0  0  0
  9 33  1  0  0  0  0
 10 29  1  0  0  0  0
 10 30  1  0  0  0  0
 10 31  1  0  0  0  0
 11 12  1  0  0  0  0
 12 13  2  0  0  0  0
 12 14  1  0  0  0  0
 13 15  1  0  0  0  0
 13 16  1  0  0  0  0
 14 17  2  0  0  0  0
 14 34  1  0  0  0  0
 15 18  2  0  0  0  0
 16 19  2  0  0  0  0
 16 35  1  0  0  0  0
 17 18  1  0  0  0  0
 17 36  1  0  0  0  0
 18 37  1  0  0  0  0
 19 39  1  0  0  0  0
M  END
> <PUBCHEM_COMPOUND_CID>
64065687

> <PUBCHEM_COMPOUND_CANONICALIZED>
1

> <PUBCHEM_CACTVS_COMPLEXITY>
353

> <PUBCHEM_CACTVS_HBOND_ACCEPTOR>
1

> <PUBCHEM_CACTVS_HBOND_DONOR>
1

> <PUBCHEM_CACTVS_ROTATABLE_BOND>
1

> <PUBCHEM_CACTVS_SUBSKEYS>
AAADceB7IAAAAAAAAAAAAAAAAAAAAWAAAAA8QAAAAAAAAFgB8AAAHgAQAAAADgjBngQ+wPPJkACoAzV3VACCgCA1AiAI2aE4ZNgIIPLAlZGEIQhglgDIyYcciYCPgAAAQAASAAAAAACAACQAAAAAAAAAAA==

> <PUBCHEM_IUPAC_OPENEYE_NAME>
(3,3-dimethyl-1-piperidyl)-(1H-indol-4-yl)methanone

> <PUBCHEM_IUPAC_CAS_NAME>
(3,3-dimethyl-1-piperidinyl)-(1H-indol-4-yl)methanone

> <PUBCHEM_IUPAC_NAME>
(3,3-dimethylpiperidin-1-yl)-(1H-indol-4-yl)methanone

> <PUBCHEM_IUPAC_SYSTEMATIC_NAME>
(3,3-dimethylpiperidin-1-yl)-(1H-indol-4-yl)methanone

> <PUBCHEM_IUPAC_TRADITIONAL_NAME>
(3,3-dimethylpiperidino)-(1H-indol-4-yl)methanone

> <PUBCHEM_IUPAC_INCHI>
InChI=1S/C16H20N2O/c1-16(2)8-4-10-18(11-16)15(19)13-5-3-6-14-12(13)7-9-17-14/h3,5-7,9,17H,4,8,10-11H2,1-2H3

> <PUBCHEM_IUPAC_INCHIKEY>
YIKCEDUYVVOFTI-UHFFFAOYSA-N

> <PUBCHEM_XLOGP3>
2.9

> <PUBCHEM_EXACT_MASS>
256.157563

> <PUBCHEM_MOLECULAR_FORMULA>
C16H20N2O

> <PUBCHEM_MOLECULAR_WEIGHT>
256.3428

> <PUBCHEM_OPENEYE_CAN_SMILES>
CC1(CCCN(C1)C(=O)C2=C3C=CNC3=CC=C2)C

> <PUBCHEM_OPENEYE_ISO_SMILES>
CC1(CCCN(C1)C(=O)C2=C3C=CNC3=CC=C2)C

> <PUBCHEM_CACTVS_TPSA>
36.1

> <PUBCHEM_MONOISOTOPIC_WEIGHT>
256.157563

> <PUBCHEM_TOTAL_CHARGE>
0

> <PUBCHEM_HEAVY_ATOM_COUNT>
19

> <PUBCHEM_ATOM_DEF_STEREO_COUNT>
0

> <PUBCHEM_ATOM_UDEF_STEREO_COUNT>
0

> <PUBCHEM_BOND_DEF_STEREO_COUNT>
0

> <PUBCHEM_BOND_UDEF_STEREO_COUNT>
0

> <PUBCHEM_ISOTOPIC_ATOM_COUNT>
0

> <PUBCHEM_COMPONENT_COUNT>
1

> <PUBCHEM_CACTVS_TAUTO_COUNT>
3

> <PUBCHEM_COORDINATE_TYPE>
1
5
255

> <PUBCHEM_BONDANNOTATIONS>
12  13  8
12  14  8
13  15  8
13  16  8
14  17  8
15  18  8
16  19  8
17  18  8
3  15  8
3  19  8

$$$$
64065878
  -OEChem-11301218242D

 39 41  0     0  0  0  0  0  0999 V2000
    4.3211    1.6375    0.0000 O   0  0  0  0  0  0  0  0  0  0  0  0
    5.9674    1.0994    0.0000 N   0  0  0  0  0  0  0  0  0  0  0  0
    4.6783   -1.6668    0.0000 N   0  0  0  0  0  0  0  0  0  0  0  0
    7.6138    0.5613    0.0000 C   0  0  0  0  0  0  0  0  0  0  0  0
    7.9244    1.5118    0.0000 C   0  0  0  0  0  0  0  0  0  0  0  0
    6.6353    0.3551    0.0000 C   0  0  0  0  0  0  0  0  0  0  0  0
    7.2566    2.2561    0.0000 C   0  0  0  0  0  0  0  0  0  0  0  0
    6.2781    2.0499    0.0000 C   0  0  0  0  0  0  0  0  0  0  0  0
    8.5643    0.2506    0.0000 C   0  0  0  0  0  0  0  0  0  0  0  0
    7.8200   -0.4172    0.0000 C   0  0  0  0  0  0  0  0  0  0  0  0
    4.9889    0.8932    0.0000 C   0  0  0  0  0  0  0  0  0  0  0  0
    4.6783   -0.0573    0.0000 C   0  0  0  0  0  0  0  0  0  0  0  0
    3.7320   -0.3621    0.0000 C   0  0  0  0  0  0  0  0  0  0  0  0
    5.2619   -0.8621    0.0000 C   0  0  0  0  0  0  0  0  0  0  0  0
    3.7320   -1.3621    0.0000 C   0  0  0  0  0  0  0  0  0  0  0  0
    2.8660    0.1379    0.0000 C   0  0  0  0  0  0  0  0  0  0  0  0
    2.8660   -1.8621    0.0000 C   0  0  0  0  0  0  0  0  0  0  0  0
    2.0000   -0.3621    0.0000 C   0  0  0  0  0  0  0  0  0  0  0  0
    2.0000   -1.3621    0.0000 C   0  0  0  0  0  0  0  0  0  0  0  0
    8.4714    1.2198    0.0000 H   0  0  0  0  0  0  0  0  0  0  0  0
    8.3070    1.9997    0.0000 H   0  0  0  0  0  0  0  0  0  0  0  0
    6.1089    0.0275    0.0000 H   0  0  0  0  0  0  0  0  0  0  0  0
    6.8665   -0.2202    0.0000 H   0  0  0  0  0  0  0  0  0  0  0  0
    7.7830    2.5838    0.0000 H   0  0  0  0  0  0  0  0  0  0  0  0
    7.0254    2.8314    0.0000 H   0  0  0  0  0  0  0  0  0  0  0  0
    6.2575    2.6696    0.0000 H   0  0  0  0  0  0  0  0  0  0  0  0
    5.6643    2.1373    0.0000 H   0  0  0  0  0  0  0  0  0  0  0  0
    8.3717   -0.3387    0.0000 H   0  0  0  0  0  0  0  0  0  0  0  0
    7.2133   -0.5451    0.0000 H   0  0  0  0  0  0  0  0  0  0  0  0
    7.9479   -1.0239    0.0000 H   0  0  0  0  0  0  0  0  0  0  0  0
    8.4267   -0.2893    0.0000 H   0  0  0  0  0  0  0  0  0  0  0  0
    9.1536    0.0580    0.0000 H   0  0  0  0  0  0  0  0  0  0  0  0
    8.7569    0.8400    0.0000 H   0  0  0  0  0  0  0  0  0  0  0  0
    5.8819   -0.8621    0.0000 H   0  0  0  0  0  0  0  0  0  0  0  0
    4.8709   -2.2561    0.0000 H   0  0  0  0  0  0  0  0  0  0  0  0
    2.8660    0.7579    0.0000 H   0  0  0  0  0  0  0  0  0  0  0  0
    2.8660   -2.4821    0.0000 H   0  0  0  0  0  0  0  0  0  0  0  0
    1.4631   -0.0521    0.0000 H   0  0  0  0  0  0  0  0  0  0  0  0
    1.4631   -1.6721    0.0000 H   0  0  0  0  0  0  0  0  0  0  0  0
  1 11  2  0  0  0  0
  2  6  1  0  0  0  0
  2  8  1  0  0  0  0
  2 11  1  0  0  0  0
  3 14  1  0  0  0  0
  3 15  1  0  0  0  0
  3 35  1  0  0  0  0
  4  5  1  0  0  0  0
  4  6  1  0  0  0  0
  4  9  1  0  0  0  0
  4 10  1  0  0  0  0
  5  7  1  0  0  0  0
  5 20  1  0  0  0  0
  5 21  1  0  0  0  0
  6 22  1  0  0  0  0
  6 23  1  0  0  0  0
  7  8  1  0  0  0  0
  7 24  1  0  0  0  0
  7 25  1  0  0  0  0
  8 26  1  0  0  0  0
  8 27  1  0  0  0  0
  9 28  1  0  0  0  0
  9 32  1  0  0  0  0
  9 33  1  0  0  0  0
 10 29  1  0  0  0  0
 10 30  1  0  0  0  0
 10 31  1  0  0  0  0
 11 12  1  0  0  0  0
 12 13  1  0  0  0  0
 12 14  2  0  0  0  0
 13 15  1  0  0  0  0
 13 16  2  0  0  0  0
 14 34  1  0  0  0  0
 15 17  2  0  0  0  0
 16 18  1  0  0  0  0
 16 36  1  0  0  0  0
 17 19  1  0  0  0  0
 17 37  1  0  0  0  0
 18 19  2  0  0  0  0
 18 38  1  0  0  0  0
 19 39  1  0  0  0  0
M  END
> <PUBCHEM_COMPOUND_CID>
64065878

> <PUBCHEM_COMPOUND_CANONICALIZED>
1

> <PUBCHEM_CACTVS_COMPLEXITY>
353

> <PUBCHEM_CACTVS_HBOND_ACCEPTOR>
1

> <PUBCHEM_CACTVS_HBOND_DONOR>
1

> <PUBCHEM_CACTVS_ROTATABLE_BOND>
1

> <PUBCHEM_CACTVS_SUBSKEYS>
AAADceB7IAAAAAAAAAAAAAAAAAAAAWAAAAA8QAAAAAAAAFgB8AAAHgAQAAAADgjBngQ+wPPJkACoAzV3VACCgCA1AiAI2aE4ZNgIIPrA1ZGEIYhglgDIyccciMCPgAAAAAACAAAAAAAAAAQAAAAAAAAAAA==

> <PUBCHEM_IUPAC_OPENEYE_NAME>
(3,3-dimethyl-1-piperidyl)-(1H-indol-3-yl)methanone

> <PUBCHEM_IUPAC_CAS_NAME>
(3,3-dimethyl-1-piperidinyl)-(1H-indol-3-yl)methanone

> <PUBCHEM_IUPAC_NAME>
(3,3-dimethylpiperidin-1-yl)-(1H-indol-3-yl)methanone

> <PUBCHEM_IUPAC_SYSTEMATIC_NAME>
(3,3-dimethylpiperidin-1-yl)-(1H-indol-3-yl)methanone

> <PUBCHEM_IUPAC_TRADITIONAL_NAME>
(3,3-dimethylpiperidino)-(1H-indol-3-yl)methanone

> <PUBCHEM_IUPAC_INCHI>
InChI=1S/C16H20N2O/c1-16(2)8-5-9-18(11-16)15(19)13-10-17-14-7-4-3-6-12(13)14/h3-4,6-7,10,17H,5,8-9,11H2,1-2H3

> <PUBCHEM_IUPAC_INCHIKEY>
ZSTXGWISQLQPMQ-UHFFFAOYSA-N

> <PUBCHEM_XLOGP3>
3.6

> <PUBCHEM_EXACT_MASS>
256.157563

> <PUBCHEM_MOLECULAR_FORMULA>
C16H20N2O

> <PUBCHEM_MOLECULAR_WEIGHT>
256.3428

> <PUBCHEM_OPENEYE_CAN_SMILES>
CC1(CCCN(C1)C(=O)C2=CNC3=CC=CC=C32)C

> <PUBCHEM_OPENEYE_ISO_SMILES>
CC1(CCCN(C1)C(=O)C2=CNC3=CC=CC=C32)C

> <PUBCHEM_CACTVS_TPSA>
36.1

> <PUBCHEM_MONOISOTOPIC_WEIGHT>
256.157563

> <PUBCHEM_TOTAL_CHARGE>
0

> <PUBCHEM_HEAVY_ATOM_COUNT>
19

> <PUBCHEM_ATOM_DEF_STEREO_COUNT>
0

> <PUBCHEM_ATOM_UDEF_STEREO_COUNT>
0

> <PUBCHEM_BOND_DEF_STEREO_COUNT>
0

> <PUBCHEM_BOND_UDEF_STEREO_COUNT>
0

> <PUBCHEM_ISOTOPIC_ATOM_COUNT>
0

> <PUBCHEM_COMPONENT_COUNT>
1

> <PUBCHEM_CACTVS_TAUTO_COUNT>
3

> <PUBCHEM_COORDINATE_TYPE>
1
5
255

> <PUBCHEM_BONDANNOTATIONS>
12  13  8
12  14  8
13  15  8
13  16  8
15  17  8
16  18  8
17  19  8
18  19  8
3  14  8
3  15  8

$$$$
64065879
  -OEChem-11301218242D

 45 47  0     0  0  0  0  0  0999 V2000
    5.6103    2.2158    0.0000 O   0  0  0  0  0  0  0  0  0  0  0  0
    7.2566    1.6778    0.0000 N   0  0  0  0  0  0  0  0  0  0  0  0
    4.6783   -2.2452    0.0000 N   0  0  0  0  0  0  0  0  0  0  0  0
    8.9030    1.1397    0.0000 C   0  0  0  0  0  0  0  0  0  0  0  0
    9.2136    2.0902    0.0000 C   0  0  0  0  0  0  0  0  0  0  0  0
    7.9244    0.9335    0.0000 C   0  0  0  0  0  0  0  0  0  0  0  0
    8.5458    2.8345    0.0000 C   0  0  0  0  0  0  0  0  0  0  0  0
    7.5673    2.6283    0.0000 C   0  0  0  0  0  0  0  0  0  0  0  0
    9.8535    0.8290    0.0000 C   0  0  0  0  0  0  0  0  0  0  0  0
    9.1092    0.1612    0.0000 C   0  0  0  0  0  0  0  0  0  0  0  0
    6.2781    1.4715    0.0000 C   0  0  0  0  0  0  0  0  0  0  0  0
    5.9674    0.5210    0.0000 C   0  0  0  0  0  0  0  0  0  0  0  0
    4.9889    0.3148    0.0000 C   0  0  0  0  0  0  0  0  0  0  0  0
    4.6783   -0.6357    0.0000 C   0  0  0  0  0  0  0  0  0  0  0  0
    3.7320   -0.9404    0.0000 C   0  0  0  0  0  0  0  0  0  0  0  0
    5.2619   -1.4404    0.0000 C   0  0  0  0  0  0  0  0  0  0  0  0
    3.7320   -1.9404    0.0000 C   0  0  0  0  0  0  0  0  0  0  0  0
    2.8660   -0.4404    0.0000 C   0  0  0  0  0  0  0  0  0  0  0  0
    2.8660   -2.4404    0.0000 C   0  0  0  0  0  0  0  0  0  0  0  0
    2.0000   -0.9404    0.0000 C   0  0  0  0  0  0  0  0  0  0  0  0
    2.0000   -1.9404    0.0000 C   0  0  0  0  0  0  0  0  0  0  0  0
    9.7605    1.7982    0.0000 H   0  0  0  0  0  0  0  0  0  0  0  0
    9.5962    2.5781    0.0000 H   0  0  0  0  0  0  0  0  0  0  0  0
    7.3981    0.6058    0.0000 H   0  0  0  0  0  0  0  0  0  0  0  0
    8.1557    0.3582    0.0000 H   0  0  0  0  0  0  0  0  0  0  0  0
    9.0721    3.1621    0.0000 H   0  0  0  0  0  0  0  0  0  0  0  0
    8.3145    3.4098    0.0000 H   0  0  0  0  0  0  0  0  0  0  0  0
    7.5467    3.2479    0.0000 H   0  0  0  0  0  0  0  0  0  0  0  0
    6.9534    2.7156    0.0000 H   0  0  0  0  0  0  0  0  0  0  0  0
    9.6609    0.2397    0.0000 H   0  0  0  0  0  0  0  0  0  0  0  0
   10.4428    0.6364    0.0000 H   0  0  0  0  0  0  0  0  0  0  0  0
   10.0461    1.4183    0.0000 H   0  0  0  0  0  0  0  0  0  0  0  0
    8.5025    0.0333    0.0000 H   0  0  0  0  0  0  0  0  0  0  0  0
    9.2370   -0.4455    0.0000 H   0  0  0  0  0  0  0  0  0  0  0  0
    9.7158    0.2890    0.0000 H   0  0  0  0  0  0  0  0  0  0  0  0
    5.9880   -0.0986    0.0000 H   0  0  0  0  0  0  0  0  0  0  0  0
    6.5812    0.4337    0.0000 H   0  0  0  0  0  0  0  0  0  0  0  0
    4.9684    0.9345    0.0000 H   0  0  0  0  0  0  0  0  0  0  0  0
    4.3751    0.4022    0.0000 H   0  0  0  0  0  0  0  0  0  0  0  0
    5.8819   -1.4404    0.0000 H   0  0  0  0  0  0  0  0  0  0  0  0
    4.8709   -2.8345    0.0000 H   0  0  0  0  0  0  0  0  0  0  0  0
    2.8660    0.1796    0.0000 H   0  0  0  0  0  0  0  0  0  0  0  0
    2.8660   -3.0604    0.0000 H   0  0  0  0  0  0  0  0  0  0  0  0
    1.4631   -0.6304    0.0000 H   0  0  0  0  0  0  0  0  0  0  0  0
    1.4631   -2.2504    0.0000 H   0  0  0  0  0  0  0  0  0  0  0  0
  1 11  2  0  0  0  0
  2  6  1  0  0  0  0
  2  8  1  0  0  0  0
  2 11  1  0  0  0  0
  3 16  1  0  0  0  0
  3 17  1  0  0  0  0
  3 41  1  0  0  0  0
  4  5  1  0  0  0  0
  4  6  1  0  0  0  0
  4  9  1  0  0  0  0
  4 10  1  0  0  0  0
  5  7  1  0  0  0  0
  5 22  1  0  0  0  0
  5 23  1  0  0  0  0
  6 24  1  0  0  0  0
  6 25  1  0  0  0  0
  7  8  1  0  0  0  0
  7 26  1  0  0  0  0
  7 27  1  0  0  0  0
  8 28  1  0  0  0  0
  8 29  1  0  0  0  0
  9 30  1  0  0  0  0
  9 31  1  0  0  0  0
  9 32  1  0  0  0  0
 10 33  1  0  0  0  0
 10 34  1  0  0  0  0
 10 35  1  0  0  0  0
 11 12  1  0  0  0  0
 12 13  1  0  0  0  0
 12 36  1  0  0  0  0
 12 37  1  0  0  0  0
 13 14  1  0  0  0  0
 13 38  1  0  0  0  0
 13 39  1  0  0  0  0
 14 15  1  0  0  0  0
 14 16  2  0  0  0  0
 15 17  1  0  0  0  0
 15 18  2  0  0  0  0
 16 40  1  0  0  0  0
 17 19  2  0  0  0  0
 18 20  1  0  0  0  0
 18 42  1  0  0  0  0
 19 21  1  0  0  0  0
 19 43  1  0  0  0  0
 20 21  2  0  0  0  0
 20 44  1  0  0  0  0
 21 45  1  0  0  0  0
M  END
> <PUBCHEM_COMPOUND_CID>
64065879

> <PUBCHEM_COMPOUND_CANONICALIZED>
1

> <PUBCHEM_CACTVS_COMPLEXITY>
379

> <PUBCHEM_CACTVS_HBOND_ACCEPTOR>
1

> <PUBCHEM_CACTVS_HBOND_DONOR>
1

> <PUBCHEM_CACTVS_ROTATABLE_BOND>
3

> <PUBCHEM_CACTVS_SUBSKEYS>
AAADceB7IAAAAAAAAAAAAAAAAAAAAWAAAAA8QAAAAAAAAFgB8AAAHgAQAAAADgjBngQ+wPPJkACoAzV3VACCgCAxAiAI2aE4ZJgIIPLAkZGEIAhglgDIyAcYicCPgAAAAAACAAAAAAAAAAQAAAAAAAAAAA==

> <PUBCHEM_IUPAC_OPENEYE_NAME>
1-(3,3-dimethyl-1-piperidyl)-3-(1H-indol-3-yl)propan-1-one

> <PUBCHEM_IUPAC_CAS_NAME>
1-(3,3-dimethyl-1-piperidinyl)-3-(1H-indol-3-yl)-1-propanone

> <PUBCHEM_IUPAC_NAME>
1-(3,3-dimethylpiperidin-1-yl)-3-(1H-indol-3-yl)propan-1-one

> <PUBCHEM_IUPAC_SYSTEMATIC_NAME>
1-(3,3-dimethylpiperidin-1-yl)-3-(1H-indol-3-yl)propan-1-one

> <PUBCHEM_IUPAC_TRADITIONAL_NAME>
1-(3,3-dimethylpiperidino)-3-(1H-indol-3-yl)propan-1-one

> <PUBCHEM_IUPAC_INCHI>
InChI=1S/C18H24N2O/c1-18(2)10-5-11-20(13-18)17(21)9-8-14-12-19-16-7-4-3-6-15(14)16/h3-4,6-7,12,19H,5,8-11,13H2,1-2H3

> <PUBCHEM_IUPAC_INCHIKEY>
XRXQZAYQNXNPSP-UHFFFAOYSA-N

> <PUBCHEM_XLOGP3>
3.4

> <PUBCHEM_EXACT_MASS>
284.188863

> <PUBCHEM_MOLECULAR_FORMULA>
C18H24N2O

> <PUBCHEM_MOLECULAR_WEIGHT>
284.39596

> <PUBCHEM_OPENEYE_CAN_SMILES>
CC1(CCCN(C1)C(=O)CCC2=CNC3=CC=CC=C32)C

> <PUBCHEM_OPENEYE_ISO_SMILES>
CC1(CCCN(C1)C(=O)CCC2=CNC3=CC=CC=C32)C

> <PUBCHEM_CACTVS_TPSA>
36.1

> <PUBCHEM_MONOISOTOPIC_WEIGHT>
284.188863

> <PUBCHEM_TOTAL_CHARGE>
0

> <PUBCHEM_HEAVY_ATOM_COUNT>
21

> <PUBCHEM_ATOM_DEF_STEREO_COUNT>
0

> <PUBCHEM_ATOM_UDEF_STEREO_COUNT>
0

> <PUBCHEM_BOND_DEF_STEREO_COUNT>
0

> <PUBCHEM_BOND_UDEF_STEREO_COUNT>
0

> <PUBCHEM_ISOTOPIC_ATOM_COUNT>
0

> <PUBCHEM_COMPONENT_COUNT>
1

> <PUBCHEM_CACTVS_TAUTO_COUNT>
1

> <PUBCHEM_COORDINATE_TYPE>
1
5
255

> <PUBCHEM_BONDANNOTATIONS>
14  15  8
14  16  8
15  17  8
15  18  8
17  19  8
18  20  8
19  21  8
20  21  8
3  16  8
3  17  8

$$$$
64066071
  -OEChem-11301218242D

 39 41  0     0  0  0  0  0  0999 V2000
    6.7619    1.9680    0.0000 O   0  0  0  0  0  0  0  0  0  0  0  0
    6.7619    0.2360    0.0000 N   0  0  0  0  0  0  0  0  0  0  0  0
    4.6783    1.9067    0.0000 N   0  0  0  0  0  0  0  0  0  0  0  0
    6.7619   -1.4961    0.0000 C   0  0  0  0  0  0  0  0  0  0  0  0
    7.7619   -1.4961    0.0000 C   0  0  0  0  0  0  0  0  0  0  0  0
    6.2619   -0.6300    0.0000 C   0  0  0  0  0  0  0  0  0  0  0  0
    8.2619   -0.6300    0.0000 C   0  0  0  0  0  0  0  0  0  0  0  0
    7.7619    0.2360    0.0000 C   0  0  0  0  0  0  0  0  0  0  0  0
    6.7619   -2.4961    0.0000 C   0  0  0  0  0  0  0  0  0  0  0  0
    5.8958   -1.9961    0.0000 C   0  0  0  0  0  0  0  0  0  0  0  0
    6.2619    1.1020    0.0000 C   0  0  0  0  0  0  0  0  0  0  0  0
    5.2619    1.1020    0.0000 C   0  0  0  0  0  0  0  0  0  0  0  0
    4.6783    0.2973    0.0000 C   0  0  0  0  0  0  0  0  0  0  0  0
    3.7320    1.6020    0.0000 C   0  0  0  0  0  0  0  0  0  0  0  0
    3.7320    0.6020    0.0000 C   0  0  0  0  0  0  0  0  0  0  0  0
    2.8660    2.1020    0.0000 C   0  0  0  0  0  0  0  0  0  0  0  0
    2.8660    0.1020    0.0000 C   0  0  0  0  0  0  0  0  0  0  0  0
    2.0000    1.6020    0.0000 C   0  0  0  0  0  0  0  0  0  0  0  0
    2.0000    0.6020    0.0000 C   0  0  0  0  0  0  0  0  0  0  0  0
    7.6542   -2.1066    0.0000 H   0  0  0  0  0  0  0  0  0  0  0  0
    8.3445   -1.7081    0.0000 H   0  0  0  0  0  0  0  0  0  0  0  0
    5.7869   -0.2315    0.0000 H   0  0  0  0  0  0  0  0  0  0  0  0
    5.7869   -1.0286    0.0000 H   0  0  0  0  0  0  0  0  0  0  0  0
    8.7368   -1.0286    0.0000 H   0  0  0  0  0  0  0  0  0  0  0  0
    8.7368   -0.2315    0.0000 H   0  0  0  0  0  0  0  0  0  0  0  0
    8.3445    0.4480    0.0000 H   0  0  0  0  0  0  0  0  0  0  0  0
    7.6542    0.8466    0.0000 H   0  0  0  0  0  0  0  0  0  0  0  0
    6.1419   -2.4961    0.0000 H   0  0  0  0  0  0  0  0  0  0  0  0
    5.5858   -1.4591    0.0000 H   0  0  0  0  0  0  0  0  0  0  0  0
    5.3589   -2.3061    0.0000 H   0  0  0  0  0  0  0  0  0  0  0  0
    6.2058   -2.5330    0.0000 H   0  0  0  0  0  0  0  0  0  0  0  0
    6.7619   -3.1161    0.0000 H   0  0  0  0  0  0  0  0  0  0  0  0
    7.3819   -2.4961    0.0000 H   0  0  0  0  0  0  0  0  0  0  0  0
    4.8709    2.4961    0.0000 H   0  0  0  0  0  0  0  0  0  0  0  0
    4.8709   -0.2920    0.0000 H   0  0  0  0  0  0  0  0  0  0  0  0
    2.8660    2.7220    0.0000 H   0  0  0  0  0  0  0  0  0  0  0  0
    2.8660   -0.5180    0.0000 H   0  0  0  0  0  0  0  0  0  0  0  0
    1.4631    1.9120    0.0000 H   0  0  0  0  0  0  0  0  0  0  0  0
    1.4631    0.2920    0.0000 H   0  0  0  0  0  0  0  0  0  0  0  0
  1 11  2  0  0  0  0
  2  6  1  0  0  0  0
  2  8  1  0  0  0  0
  2 11  1  0  0  0  0
  3 12  1  0  0  0  0
  3 14  1  0  0  0  0
  3 34  1  0  0  0  0
  4  5  1  0  0  0  0
  4  6  1  0  0  0  0
  4  9  1  0  0  0  0
  4 10  1  0  0  0  0
  5  7  1  0  0  0  0
  5 20  1  0  0  0  0
  5 21  1  0  0  0  0
  6 22  1  0  0  0  0
  6 23  1  0  0  0  0
  7  8  1  0  0  0  0
  7 24  1  0  0  0  0
  7 25  1  0  0  0  0
  8 26  1  0  0  0  0
  8 27  1  0  0  0  0
  9 28  1  0  0  0  0
  9 32  1  0  0  0  0
  9 33  1  0  0  0  0
 10 29  1  0  0  0  0
 10 30  1  0  0  0  0
 10 31  1  0  0  0  0
 11 12  1  0  0  0  0
 12 13  2  0  0  0  0
 13 15  1  0  0  0  0
 13 35  1  0  0  0  0
 14 15  1  0  0  0  0
 14 16  2  0  0  0  0
 15 17  2  0  0  0  0
 16 18  1  0  0  0  0
 16 36  1  0  0  0  0
 17 19  1  0  0  0  0
 17 37  1  0  0  0  0
 18 19  2  0  0  0  0
 18 38  1  0  0  0  0
 19 39  1  0  0  0  0
M  END
> <PUBCHEM_COMPOUND_CID>
64066071

> <PUBCHEM_COMPOUND_CANONICALIZED>
1

> <PUBCHEM_CACTVS_COMPLEXITY>
353

> <PUBCHEM_CACTVS_HBOND_ACCEPTOR>
1

> <PUBCHEM_CACTVS_HBOND_DONOR>
1

> <PUBCHEM_CACTVS_ROTATABLE_BOND>
1

> <PUBCHEM_CACTVS_SUBSKEYS>
AAADceB7IAAAAAAAAAAAAAAAAAAAAWAAAAA8QAAAAAAAAFgB8AAAHgAQAAAADgjBngQywPPJkACoAyVyVACCgCAnAiAImSG4ZNgIYPLAlbGUIQhglgDIyYcYiYCfAAAAAAACAAAAAAAAAAQAAAAAAAAAAA==

> <PUBCHEM_IUPAC_OPENEYE_NAME>
(3,3-dimethyl-1-piperidyl)-(1H-indol-2-yl)methanone

> <PUBCHEM_IUPAC_CAS_NAME>
(3,3-dimethyl-1-piperidinyl)-(1H-indol-2-yl)methanone

> <PUBCHEM_IUPAC_NAME>
(3,3-dimethylpiperidin-1-yl)-(1H-indol-2-yl)methanone

> <PUBCHEM_IUPAC_SYSTEMATIC_NAME>
(3,3-dimethylpiperidin-1-yl)-(1H-indol-2-yl)methanone

> <PUBCHEM_IUPAC_TRADITIONAL_NAME>
(3,3-dimethylpiperidino)-(1H-indol-2-yl)methanone

> <PUBCHEM_IUPAC_INCHI>
InChI=1S/C16H20N2O/c1-16(2)8-5-9-18(11-16)15(19)14-10-12-6-3-4-7-13(12)17-14/h3-4,6-7,10,17H,5,8-9,11H2,1-2H3

> <PUBCHEM_IUPAC_INCHIKEY>
QWUQSOUMPBXSPT-UHFFFAOYSA-N

> <PUBCHEM_XLOGP3>
3.9

> <PUBCHEM_EXACT_MASS>
256.157563

> <PUBCHEM_MOLECULAR_FORMULA>
C16H20N2O

> <PUBCHEM_MOLECULAR_WEIGHT>
256.3428

> <PUBCHEM_OPENEYE_CAN_SMILES>
CC1(CCCN(C1)C(=O)C2=CC3=CC=CC=C3N2)C

> <PUBCHEM_OPENEYE_ISO_SMILES>
CC1(CCCN(C1)C(=O)C2=CC3=CC=CC=C3N2)C

> <PUBCHEM_CACTVS_TPSA>
36.1

> <PUBCHEM_MONOISOTOPIC_WEIGHT>
256.157563

> <PUBCHEM_TOTAL_CHARGE>
0

> <PUBCHEM_HEAVY_ATOM_COUNT>
19

> <PUBCHEM_ATOM_DEF_STEREO_COUNT>
0

> <PUBCHEM_ATOM_UDEF_STEREO_COUNT>
0

> <PUBCHEM_BOND_DEF_STEREO_COUNT>
0

> <PUBCHEM_BOND_UDEF_STEREO_COUNT>
0

> <PUBCHEM_ISOTOPIC_ATOM_COUNT>
0

> <PUBCHEM_COMPONENT_COUNT>
1

> <PUBCHEM_CACTVS_TAUTO_COUNT>
6

> <PUBCHEM_COORDINATE_TYPE>
1
5
255

> <PUBCHEM_BONDANNOTATIONS>
12  13  8
13  15  8
14  15  8
14  16  8
15  17  8
16  18  8
17  19  8
18  19  8
3  12  8
3  14  8

$$$$
64066072
  -OEChem-11301218242D

 39 41  0     0  0  0  0  0  0999 V2000
    4.5981   -1.9330    0.0000 O   0  0  0  0  0  0  0  0  0  0  0  0
    3.7320   -0.4330    0.0000 N   0  0  0  0  0  0  0  0  0  0  0  0
    8.1424    0.8717    0.0000 N   0  0  0  0  0  0  0  0  0  0  0  0
    2.8660    1.0670    0.0000 C   0  0  0  0  0  0  0  0  0  0  0  0
    2.0000    0.5670    0.0000 C   0  0  0  0  0  0  0  0  0  0  0  0
    3.7320    0.5670    0.0000 C   0  0  0  0  0  0  0  0  0  0  0  0
    2.0000   -0.4330    0.0000 C   0  0  0  0  0  0  0  0  0  0  0  0
    2.8660   -0.9330    0.0000 C   0  0  0  0  0  0  0  0  0  0  0  0
    2.3660    1.9330    0.0000 C   0  0  0  0  0  0  0  0  0  0  0  0
    3.3660    1.9330    0.0000 C   0  0  0  0  0  0  0  0  0  0  0  0
    4.5981   -0.9330    0.0000 C   0  0  0  0  0  0  0  0  0  0  0  0
    5.4641   -0.4330    0.0000 C   0  0  0  0  0  0  0  0  0  0  0  0
    6.3301   -0.9330    0.0000 C   0  0  0  0  0  0  0  0  0  0  0  0
    5.4641    0.5670    0.0000 C   0  0  0  0  0  0  0  0  0  0  0  0
    7.1962   -0.4330    0.0000 C   0  0  0  0  0  0  0  0  0  0  0  0
    7.1962    0.5670    0.0000 C   0  0  0  0  0  0  0  0  0  0  0  0
    6.3301    1.0670    0.0000 C   0  0  0  0  0  0  0  0  0  0  0  0
    8.1424   -0.7377    0.0000 C   0  0  0  0  0  0  0  0  0  0  0  0
    8.7260    0.0670    0.0000 C   0  0  0  0  0  0  0  0  0  0  0  0
    1.7880    1.1496    0.0000 H   0  0  0  0  0  0  0  0  0  0  0  0
    1.3894    0.4593    0.0000 H   0  0  0  0  0  0  0  0  0  0  0  0
    4.3426    0.4593    0.0000 H   0  0  0  0  0  0  0  0  0  0  0  0
    3.9441    1.1496    0.0000 H   0  0  0  0  0  0  0  0  0  0  0  0
    1.3894   -0.3254    0.0000 H   0  0  0  0  0  0  0  0  0  0  0  0
    1.7880   -1.0156    0.0000 H   0  0  0  0  0  0  0  0  0  0  0  0
    2.4675   -1.4080    0.0000 H   0  0  0  0  0  0  0  0  0  0  0  0
    3.2646   -1.4080    0.0000 H   0  0  0  0  0  0  0  0  0  0  0  0
    2.9030    2.2430    0.0000 H   0  0  0  0  0  0  0  0  0  0  0  0
    3.9030    1.6230    0.0000 H   0  0  0  0  0  0  0  0  0  0  0  0
    3.6760    2.4700    0.0000 H   0  0  0  0  0  0  0  0  0  0  0  0
    2.8291    2.2430    0.0000 H   0  0  0  0  0  0  0  0  0  0  0  0
    2.0560    2.4700    0.0000 H   0  0  0  0  0  0  0  0  0  0  0  0
    1.8291    1.6230    0.0000 H   0  0  0  0  0  0  0  0  0  0  0  0
    6.3301   -1.5530    0.0000 H   0  0  0  0  0  0  0  0  0  0  0  0
    4.9272    0.8770    0.0000 H   0  0  0  0  0  0  0  0  0  0  0  0
    6.3301    1.6870    0.0000 H   0  0  0  0  0  0  0  0  0  0  0  0
    8.3350   -1.3271    0.0000 H   0  0  0  0  0  0  0  0  0  0  0  0
    8.3350    1.4610    0.0000 H   0  0  0  0  0  0  0  0  0  0  0  0
    9.3460    0.0670    0.0000 H   0  0  0  0  0  0  0  0  0  0  0  0
  1 11  2  0  0  0  0
  2  6  1  0  0  0  0
  2  8  1  0  0  0  0
  2 11  1  0  0  0  0
  3 16  1  0  0  0  0
  3 19  1  0  0  0  0
  3 38  1  0  0  0  0
  4  5  1  0  0  0  0
  4  6  1  0  0  0  0
  4  9  1  0  0  0  0
  4 10  1  0  0  0  0
  5  7  1  0  0  0  0
  5 20  1  0  0  0  0
  5 21  1  0  0  0  0
  6 22  1  0  0  0  0
  6 23  1  0  0  0  0
  7  8  1  0  0  0  0
  7 24  1  0  0  0  0
  7 25  1  0  0  0  0
  8 26  1  0  0  0  0
  8 27  1  0  0  0  0
  9 28  1  0  0  0  0
  9 32  1  0  0  0  0
  9 33  1  0  0  0  0
 10 29  1  0  0  0  0
 10 30  1  0  0  0  0
 10 31  1  0  0  0  0
 11 12  1  0  0  0  0
 12 13  2  0  0  0  0
 12 14  1  0  0  0  0
 13 15  1  0  0  0  0
 13 34  1  0  0  0  0
 14 17  2  0  0  0  0
 14 35  1  0  0  0  0
 15 16  2  0  0  0  0
 15 18  1  0  0  0  0
 16 17  1  0  0  0  0
 17 36  1  0  0  0  0
 18 19  2  0  0  0  0
 18 37  1  0  0  0  0
 19 39  1  0  0  0  0
M  END
> <PUBCHEM_COMPOUND_CID>
64066072

> <PUBCHEM_COMPOUND_CANONICALIZED>
1

> <PUBCHEM_CACTVS_COMPLEXITY>
353

> <PUBCHEM_CACTVS_HBOND_ACCEPTOR>
1

> <PUBCHEM_CACTVS_HBOND_DONOR>
1

> <PUBCHEM_CACTVS_ROTATABLE_BOND>
1

> <PUBCHEM_CACTVS_SUBSKEYS>
AAADceB7IAAAAAAAAAAAAAAAAAAAAWAAAAA8QAAAAAAAAFgB8AAAHgAQAAAADgjBngQ+wPPJkACoAzV3VACCgCA1AiAI2aE4ZNgIIPLAlZGEIQhglgDIyYcYicCfCAACAAACAAAQAAQAAAQAAAAAAAAAAA==

> <PUBCHEM_IUPAC_OPENEYE_NAME>
(3,3-dimethyl-1-piperidyl)-(1H-indol-5-yl)methanone

> <PUBCHEM_IUPAC_CAS_NAME>
(3,3-dimethyl-1-piperidinyl)-(1H-indol-5-yl)methanone

> <PUBCHEM_IUPAC_NAME>
(3,3-dimethylpiperidin-1-yl)-(1H-indol-5-yl)methanone

> <PUBCHEM_IUPAC_SYSTEMATIC_NAME>
(3,3-dimethylpiperidin-1-yl)-(1H-indol-5-yl)methanone

> <PUBCHEM_IUPAC_TRADITIONAL_NAME>
(3,3-dimethylpiperidino)-(1H-indol-5-yl)methanone

> <PUBCHEM_IUPAC_INCHI>
InChI=1S/C16H20N2O/c1-16(2)7-3-9-18(11-16)15(19)13-4-5-14-12(10-13)6-8-17-14/h4-6,8,10,17H,3,7,9,11H2,1-2H3

> <PUBCHEM_IUPAC_INCHIKEY>
QPSSZUKMEIREIY-UHFFFAOYSA-N

> <PUBCHEM_XLOGP3>
3.1

> <PUBCHEM_EXACT_MASS>
256.157563

> <PUBCHEM_MOLECULAR_FORMULA>
C16H20N2O

> <PUBCHEM_MOLECULAR_WEIGHT>
256.3428

> <PUBCHEM_OPENEYE_CAN_SMILES>
CC1(CCCN(C1)C(=O)C2=CC3=C(C=C2)NC=C3)C

> <PUBCHEM_OPENEYE_ISO_SMILES>
CC1(CCCN(C1)C(=O)C2=CC3=C(C=C2)NC=C3)C

> <PUBCHEM_CACTVS_TPSA>
36.1

> <PUBCHEM_MONOISOTOPIC_WEIGHT>
256.157563

> <PUBCHEM_TOTAL_CHARGE>
0

> <PUBCHEM_HEAVY_ATOM_COUNT>
19

> <PUBCHEM_ATOM_DEF_STEREO_COUNT>
0

> <PUBCHEM_ATOM_UDEF_STEREO_COUNT>
0

> <PUBCHEM_BOND_DEF_STEREO_COUNT>
0

> <PUBCHEM_BOND_UDEF_STEREO_COUNT>
0

> <PUBCHEM_ISOTOPIC_ATOM_COUNT>
0

> <PUBCHEM_COMPONENT_COUNT>
1

> <PUBCHEM_CACTVS_TAUTO_COUNT>
3

> <PUBCHEM_COORDINATE_TYPE>
1
5
255

> <PUBCHEM_BONDANNOTATIONS>
12  13  8
12  14  8
13  15  8
14  17  8
15  16  8
15  18  8
16  17  8
18  19  8
3  16  8
3  19  8

$$$$
