47743486
  -OEChem-10201218372D

 31 32  0     1  0  0  0  0  0999 V2000
    4.5981    2.4330    0.0000 O   0  0  0  0  0  0  0  0  0  0  0  0
    3.7320    0.9330    0.0000 N   0  0  0  0  0  0  0  0  0  0  0  0
    2.8660    2.4330    0.0000 N   0  0  0  0  0  0  0  0  0  0  0  0
    5.0981   -0.4330    0.0000 C   0  0  3  0  0  0  0  0  0  0  0  0
    4.5981    0.4330    0.0000 C   0  0  3  0  0  0  0  0  0  0  0  0
    5.5981    0.4330    0.0000 C   0  0  0  0  0  0  0  0  0  0  0  0
    5.0981   -1.4330    0.0000 C   0  0  0  0  0  0  0  0  0  0  0  0
    4.2320   -1.9330    0.0000 C   0  0  0  0  0  0  0  0  0  0  0  0
    5.9641   -1.9330    0.0000 C   0  0  0  0  0  0  0  0  0  0  0  0
    3.7320    1.9330    0.0000 C   0  0  0  0  0  0  0  0  0  0  0  0
    4.2320   -2.9330    0.0000 C   0  0  0  0  0  0  0  0  0  0  0  0
    5.9641   -2.9330    0.0000 C   0  0  0  0  0  0  0  0  0  0  0  0
    5.0981   -3.4330    0.0000 C   0  0  0  0  0  0  0  0  0  0  0  0
    2.8660    3.4330    0.0000 C   0  0  0  0  0  0  0  0  0  0  0  0
    2.0000    1.9330    0.0000 C   0  0  0  0  0  0  0  0  0  0  0  0
    5.6970   -0.5935    0.0000 H   0  0  0  0  0  0  0  0  0  0  0  0
    4.7585    1.0319    0.0000 H   0  0  0  0  0  0  0  0  0  0  0  0
    6.1807    0.2210    0.0000 H   0  0  0  0  0  0  0  0  0  0  0  0
    5.7057    1.0436    0.0000 H   0  0  0  0  0  0  0  0  0  0  0  0
    3.1951    0.6230    0.0000 H   0  0  0  0  0  0  0  0  0  0  0  0
    3.6951   -1.6230    0.0000 H   0  0  0  0  0  0  0  0  0  0  0  0
    6.5010   -1.6230    0.0000 H   0  0  0  0  0  0  0  0  0  0  0  0
    3.6951   -3.2430    0.0000 H   0  0  0  0  0  0  0  0  0  0  0  0
    6.5010   -3.2430    0.0000 H   0  0  0  0  0  0  0  0  0  0  0  0
    5.0981   -4.0530    0.0000 H   0  0  0  0  0  0  0  0  0  0  0  0
    3.4860    3.4330    0.0000 H   0  0  0  0  0  0  0  0  0  0  0  0
    2.8660    4.0530    0.0000 H   0  0  0  0  0  0  0  0  0  0  0  0
    1.6900    2.4700    0.0000 H   0  0  0  0  0  0  0  0  0  0  0  0
    1.4631    1.6230    0.0000 H   0  0  0  0  0  0  0  0  0  0  0  0
    2.3100    1.3961    0.0000 H   0  0  0  0  0  0  0  0  0  0  0  0
    2.2460    3.4330    0.0000 H   0  0  0  0  0  0  0  0  0  0  0  0
  1 10  2  0  0  0  0
  2  5  1  0  0  0  0
  2 10  1  0  0  0  0
  2 20  1  0  0  0  0
  3 10  1  0  0  0  0
  3 14  1  0  0  0  0
  3 15  1  0  0  0  0
  4  5  1  0  0  0  0
  4  6  1  0  0  0  0
  4  7  1  0  0  0  0
  4 16  1  0  0  0  0
  5  6  1  0  0  0  0
  5 17  1  0  0  0  0
  6 18  1  0  0  0  0
  6 19  1  0  0  0  0
  7  8  2  0  0  0  0
  7  9  1  0  0  0  0
  8 11  1  0  0  0  0
  8 21  1  0  0  0  0
  9 12  2  0  0  0  0
  9 22  1  0  0  0  0
 11 13  2  0  0  0  0
 11 23  1  0  0  0  0
 12 13  1  0  0  0  0
 12 24  1  0  0  0  0
 13 25  1  0  0  0  0
 14 26  1  0  0  0  0
 14 27  1  0  0  0  0
 14 31  1  0  0  0  0
 15 28  1  0  0  0  0
 15 29  1  0  0  0  0
 15 30  1  0  0  0  0
M  END
> <PUBCHEM_COMPOUND_CID>
47743486

> <PUBCHEM_COMPOUND_CANONICALIZED>
1

> <PUBCHEM_CACTVS_COMPLEXITY>
234

> <PUBCHEM_CACTVS_HBOND_ACCEPTOR>
1

> <PUBCHEM_CACTVS_HBOND_DONOR>
1

> <PUBCHEM_CACTVS_ROTATABLE_BOND>
2

> <PUBCHEM_CACTVS_SUBSKEYS>
AAADceBzIAAAAAAAAAAAAAAAGAAAAAAAAAAwAAAAAAAAAAABAAAAHgAQAAAADSjBGAQzAIPAAACIAiBCEAACAAAgAAAIiIAIAIiIICKAkRGEIAAolgIIiAcQgMAOgAAAAAAAAAAAAAAAAAAAAAAAAAAAAA==

> <PUBCHEM_IUPAC_OPENEYE_NAME>
1,1-dimethyl-3-(2-phenylcyclopropyl)urea

> <PUBCHEM_IUPAC_CAS_NAME>
1,1-dimethyl-3-(2-phenylcyclopropyl)urea

> <PUBCHEM_IUPAC_NAME>
1,1-dimethyl-3-(2-phenylcyclopropyl)urea

> <PUBCHEM_IUPAC_SYSTEMATIC_NAME>
1,1-dimethyl-3-(2-phenylcyclopropyl)urea

> <PUBCHEM_IUPAC_TRADITIONAL_NAME>
1,1-dimethyl-3-(2-phenylcyclopropyl)urea

> <PUBCHEM_IUPAC_INCHI>
InChI=1S/C12H16N2O/c1-14(2)12(15)13-11-8-10(11)9-6-4-3-5-7-9/h3-7,10-11H,8H2,1-2H3,(H,13,15)

> <PUBCHEM_IUPAC_INCHIKEY>
KBSXVDXSLRFUIN-UHFFFAOYSA-N

> <PUBCHEM_XLOGP3>
1.4

> <PUBCHEM_EXACT_MASS>
204.126263

> <PUBCHEM_MOLECULAR_FORMULA>
C12H16N2O

> <PUBCHEM_MOLECULAR_WEIGHT>
204.26824

> <PUBCHEM_OPENEYE_CAN_SMILES>
CN(C)C(=O)NC1CC1C2=CC=CC=C2

> <PUBCHEM_OPENEYE_ISO_SMILES>
CN(C)C(=O)NC1CC1C2=CC=CC=C2

> <PUBCHEM_CACTVS_TPSA>
32.3

> <PUBCHEM_MONOISOTOPIC_WEIGHT>
204.126263

> <PUBCHEM_TOTAL_CHARGE>
0

> <PUBCHEM_HEAVY_ATOM_COUNT>
15

> <PUBCHEM_ATOM_DEF_STEREO_COUNT>
0

> <PUBCHEM_ATOM_UDEF_STEREO_COUNT>
2

> <PUBCHEM_BOND_DEF_STEREO_COUNT>
0

> <PUBCHEM_BOND_UDEF_STEREO_COUNT>
0

> <PUBCHEM_ISOTOPIC_ATOM_COUNT>
0

> <PUBCHEM_COMPONENT_COUNT>
1

> <PUBCHEM_CACTVS_TAUTO_COUNT>
2

> <PUBCHEM_COORDINATE_TYPE>
1
5
255

> <PUBCHEM_BONDANNOTATIONS>
11  13  8
12  13  8
5  2  3
4  7  3
7  8  8
7  9  8
8  11  8
9  12  8

$$$$
47743525
  -OEChem-10201218372D

 35 37  0     1  0  0  0  0  0999 V2000
    5.3147    2.3318    0.0000 O   0  0  0  0  0  0  0  0  0  0  0  0
    4.4487    0.8318    0.0000 N   0  0  0  0  0  0  0  0  0  0  0  0
    3.5827    2.3318    0.0000 N   0  0  0  0  0  0  0  0  0  0  0  0
    5.8147   -0.5342    0.0000 C   0  0  3  0  0  0  0  0  0  0  0  0
    5.3147    0.3318    0.0000 C   0  0  3  0  0  0  0  0  0  0  0  0
    6.3147    0.3318    0.0000 C   0  0  0  0  0  0  0  0  0  0  0  0
    5.8147   -1.5342    0.0000 C   0  0  0  0  0  0  0  0  0  0  0  0
    4.4487    1.8318    0.0000 C   0  0  0  0  0  0  0  0  0  0  0  0
    3.4782    3.3263    0.0000 C   0  0  0  0  0  0  0  0  0  0  0  0
    2.6691    1.9251    0.0000 C   0  0  0  0  0  0  0  0  0  0  0  0
    2.5000    3.5342    0.0000 C   0  0  0  0  0  0  0  0  0  0  0  0
    2.0000    2.6682    0.0000 C   0  0  0  0  0  0  0  0  0  0  0  0
    4.9487   -2.0342    0.0000 C   0  0  0  0  0  0  0  0  0  0  0  0
    6.6808   -2.0342    0.0000 C   0  0  0  0  0  0  0  0  0  0  0  0
    4.9487   -3.0342    0.0000 C   0  0  0  0  0  0  0  0  0  0  0  0
    6.6808   -3.0342    0.0000 C   0  0  0  0  0  0  0  0  0  0  0  0
    5.8147   -3.5342    0.0000 C   0  0  0  0  0  0  0  0  0  0  0  0
    5.4752    0.9307    0.0000 H   0  0  0  0  0  0  0  0  0  0  0  0
    6.4136   -0.6947    0.0000 H   0  0  0  0  0  0  0  0  0  0  0  0
    6.8973    0.1197    0.0000 H   0  0  0  0  0  0  0  0  0  0  0  0
    6.4224    0.9424    0.0000 H   0  0  0  0  0  0  0  0  0  0  0  0
    3.9118    0.5218    0.0000 H   0  0  0  0  0  0  0  0  0  0  0  0
    4.0982    3.3263    0.0000 H   0  0  0  0  0  0  0  0  0  0  0  0
    3.5430    3.9429    0.0000 H   0  0  0  0  0  0  0  0  0  0  0  0
    2.1675    1.5606    0.0000 H   0  0  0  0  0  0  0  0  0  0  0  0
    2.9791    1.3881    0.0000 H   0  0  0  0  0  0  0  0  0  0  0  0
    2.6916    4.1239    0.0000 H   0  0  0  0  0  0  0  0  0  0  0  0
    1.9336    3.7864    0.0000 H   0  0  0  0  0  0  0  0  0  0  0  0
    1.4984    3.0326    0.0000 H   0  0  0  0  0  0  0  0  0  0  0  0
    1.5851    2.2074    0.0000 H   0  0  0  0  0  0  0  0  0  0  0  0
    4.4118   -1.7242    0.0000 H   0  0  0  0  0  0  0  0  0  0  0  0
    7.2177   -1.7242    0.0000 H   0  0  0  0  0  0  0  0  0  0  0  0
    4.4118   -3.3442    0.0000 H   0  0  0  0  0  0  0  0  0  0  0  0
    7.2177   -3.3442    0.0000 H   0  0  0  0  0  0  0  0  0  0  0  0
    5.8147   -4.1542    0.0000 H   0  0  0  0  0  0  0  0  0  0  0  0
  1  8  2  0  0  0  0
  2  5  1  0  0  0  0
  2  8  1  0  0  0  0
  2 22  1  0  0  0  0
  3  8  1  0  0  0  0
  3  9  1  0  0  0  0
  3 10  1  0  0  0  0
  4  5  1  0  0  0  0
  4  6  1  0  0  0  0
  4  7  1  0  0  0  0
  4 19  1  0  0  0  0
  5  6  1  0  0  0  0
  5 18  1  0  0  0  0
  6 20  1  0  0  0  0
  6 21  1  0  0  0  0
  7 13  2  0  0  0  0
  7 14  1  0  0  0  0
  9 11  1  0  0  0  0
  9 23  1  0  0  0  0
  9 24  1  0  0  0  0
 10 12  1  0  0  0  0
 10 25  1  0  0  0  0
 10 26  1  0  0  0  0
 11 12  1  0  0  0  0
 11 27  1  0  0  0  0
 11 28  1  0  0  0  0
 12 29  1  0  0  0  0
 12 30  1  0  0  0  0
 13 15  1  0  0  0  0
 13 31  1  0  0  0  0
 14 16  2  0  0  0  0
 14 32  1  0  0  0  0
 15 17  2  0  0  0  0
 15 33  1  0  0  0  0
 16 17  1  0  0  0  0
 16 34  1  0  0  0  0
 17 35  1  0  0  0  0
M  END
> <PUBCHEM_COMPOUND_CID>
47743525

> <PUBCHEM_COMPOUND_CANONICALIZED>
1

> <PUBCHEM_CACTVS_COMPLEXITY>
280

> <PUBCHEM_CACTVS_HBOND_ACCEPTOR>
1

> <PUBCHEM_CACTVS_HBOND_DONOR>
1

> <PUBCHEM_CACTVS_ROTATABLE_BOND>
2

> <PUBCHEM_CACTVS_SUBSKEYS>
AAADceBzIAAAAAAAAAAAAAAAGAAAAWAAAAAwAAAAAAAAAAABAAAAHgAQAAAADSjBGAQxAIPAAACIAiBCEAACAAAgAAAIiIAIAIiIICKAkRGEIAAolgKIiAcQgMAOgAAAAAAAAAAAAAAAAAAAAAAAAAAAAA==

> <PUBCHEM_IUPAC_OPENEYE_NAME>
N-(2-phenylcyclopropyl)pyrrolidine-1-carboxamide

> <PUBCHEM_IUPAC_CAS_NAME>
N-(2-phenylcyclopropyl)-1-pyrrolidinecarboxamide

> <PUBCHEM_IUPAC_NAME>
N-(2-phenylcyclopropyl)pyrrolidine-1-carboxamide

> <PUBCHEM_IUPAC_SYSTEMATIC_NAME>
N-(2-phenylcyclopropyl)pyrrolidine-1-carboxamide

> <PUBCHEM_IUPAC_TRADITIONAL_NAME>
N-(2-phenylcyclopropyl)pyrrolidine-1-carboxamide

> <PUBCHEM_IUPAC_INCHI>
InChI=1S/C14H18N2O/c17-14(16-8-4-5-9-16)15-13-10-12(13)11-6-2-1-3-7-11/h1-3,6-7,12-13H,4-5,8-10H2,(H,15,17)

> <PUBCHEM_IUPAC_INCHIKEY>
IIPUAJDSDRPSMD-UHFFFAOYSA-N

> <PUBCHEM_XLOGP3>
1.9

> <PUBCHEM_EXACT_MASS>
230.141913

> <PUBCHEM_MOLECULAR_FORMULA>
C14H18N2O

> <PUBCHEM_MOLECULAR_WEIGHT>
230.30552

> <PUBCHEM_OPENEYE_CAN_SMILES>
C1CCN(C1)C(=O)NC2CC2C3=CC=CC=C3

> <PUBCHEM_OPENEYE_ISO_SMILES>
C1CCN(C1)C(=O)NC2CC2C3=CC=CC=C3

> <PUBCHEM_CACTVS_TPSA>
32.3

> <PUBCHEM_MONOISOTOPIC_WEIGHT>
230.141913

> <PUBCHEM_TOTAL_CHARGE>
0

> <PUBCHEM_HEAVY_ATOM_COUNT>
17

> <PUBCHEM_ATOM_DEF_STEREO_COUNT>
0

> <PUBCHEM_ATOM_UDEF_STEREO_COUNT>
2

> <PUBCHEM_BOND_DEF_STEREO_COUNT>
0

> <PUBCHEM_BOND_UDEF_STEREO_COUNT>
0

> <PUBCHEM_ISOTOPIC_ATOM_COUNT>
0

> <PUBCHEM_COMPONENT_COUNT>
1

> <PUBCHEM_CACTVS_TAUTO_COUNT>
2

> <PUBCHEM_COORDINATE_TYPE>
1
5
255

> <PUBCHEM_BONDANNOTATIONS>
13  15  8
14  16  8
15  17  8
16  17  8
5  2  3
4  7  3
7  13  8
7  14  8

$$$$
