31940890
  -OEChem-06111304232D

 46 49  0     0  0  0  0  0  0999 V2000
    7.9244    0.4060    0.0000 O   0  0  0  0  0  0  0  0  0  0  0  0
    6.2781    0.9441    0.0000 N   0  0  0  0  0  0  0  0  0  0  0  0
    4.6783   -2.7727    0.0000 N   0  0  0  0  0  0  0  0  0  0  0  0
    7.5673    2.1008    0.0000 C   0  0  0  0  0  0  0  0  0  0  0  0
    7.8779    3.0513    0.0000 C   0  0  0  0  0  0  0  0  0  0  0  0
    6.6168    2.4115    0.0000 C   0  0  0  0  0  0  0  0  0  0  0  0
    6.9274    3.3620    0.0000 C   0  0  0  0  0  0  0  0  0  0  0  0
    8.5178    1.7901    0.0000 C   0  0  0  0  0  0  0  0  0  0  0  0
    7.2566    1.1503    0.0000 C   0  0  0  0  0  0  0  0  0  0  0  0
    9.2621    2.4580    0.0000 C   0  0  0  0  0  0  0  0  0  0  0  0
    8.7240    0.8116    0.0000 C   0  0  0  0  0  0  0  0  0  0  0  0
    5.9674   -0.0065    0.0000 C   0  0  0  0  0  0  0  0  0  0  0  0
    4.9889   -0.2127    0.0000 C   0  0  0  0  0  0  0  0  0  0  0  0
   10.2126    2.1473    0.0000 C   0  0  0  0  0  0  0  0  0  0  0  0
    9.6745    0.5010    0.0000 C   0  0  0  0  0  0  0  0  0  0  0  0
    4.6783   -1.1632    0.0000 C   0  0  0  0  0  0  0  0  0  0  0  0
   10.4188    1.1688    0.0000 C   0  0  0  0  0  0  0  0  0  0  0  0
    3.7320   -1.4679    0.0000 C   0  0  0  0  0  0  0  0  0  0  0  0
    5.2619   -1.9679    0.0000 C   0  0  0  0  0  0  0  0  0  0  0  0
    3.7320   -2.4679    0.0000 C   0  0  0  0  0  0  0  0  0  0  0  0
    2.8660   -0.9679    0.0000 C   0  0  0  0  0  0  0  0  0  0  0  0
    2.8660   -2.9679    0.0000 C   0  0  0  0  0  0  0  0  0  0  0  0
    2.0000   -1.4679    0.0000 C   0  0  0  0  0  0  0  0  0  0  0  0
    2.0000   -2.4679    0.0000 C   0  0  0  0  0  0  0  0  0  0  0  0
    6.0274    2.6041    0.0000 H   0  0  0  0  0  0  0  0  0  0  0  0
    6.4241    1.8221    0.0000 H   0  0  0  0  0  0  0  0  0  0  0  0
    8.4672    2.8587    0.0000 H   0  0  0  0  0  0  0  0  0  0  0  0
    8.0705    3.6406    0.0000 H   0  0  0  0  0  0  0  0  0  0  0  0
    7.1200    3.9513    0.0000 H   0  0  0  0  0  0  0  0  0  0  0  0
    6.3381    3.5546    0.0000 H   0  0  0  0  0  0  0  0  0  0  0  0
    5.8640    1.4055    0.0000 H   0  0  0  0  0  0  0  0  0  0  0  0
    9.1342    3.0647    0.0000 H   0  0  0  0  0  0  0  0  0  0  0  0
    8.2625    0.3976    0.0000 H   0  0  0  0  0  0  0  0  0  0  0  0
    5.9880   -0.6261    0.0000 H   0  0  0  0  0  0  0  0  0  0  0  0
    6.5812   -0.0938    0.0000 H   0  0  0  0  0  0  0  0  0  0  0  0
    4.9684    0.4070    0.0000 H   0  0  0  0  0  0  0  0  0  0  0  0
    4.3751   -0.1253    0.0000 H   0  0  0  0  0  0  0  0  0  0  0  0
   10.6741    2.5614    0.0000 H   0  0  0  0  0  0  0  0  0  0  0  0
    9.8024   -0.1057    0.0000 H   0  0  0  0  0  0  0  0  0  0  0  0
   11.0082    0.9762    0.0000 H   0  0  0  0  0  0  0  0  0  0  0  0
    5.8819   -1.9679    0.0000 H   0  0  0  0  0  0  0  0  0  0  0  0
    4.8709   -3.3620    0.0000 H   0  0  0  0  0  0  0  0  0  0  0  0
    2.8660   -0.3479    0.0000 H   0  0  0  0  0  0  0  0  0  0  0  0
    2.8660   -3.5879    0.0000 H   0  0  0  0  0  0  0  0  0  0  0  0
    1.4631   -1.1579    0.0000 H   0  0  0  0  0  0  0  0  0  0  0  0
    1.4631   -2.7779    0.0000 H   0  0  0  0  0  0  0  0  0  0  0  0
  1  9  2  0  0  0  0
  2  9  1  0  0  0  0
  2 12  1  0  0  0  0
  2 31  1  0  0  0  0
  3 19  1  0  0  0  0
  3 20  1  0  0  0  0
  3 42  1  0  0  0  0
  4  5  1  0  0  0  0
  4  6  1  0  0  0  0
  4  8  1  0  0  0  0
  4  9  1  0  0  0  0
  5  7  1  0  0  0  0
  5 27  1  0  0  0  0
  5 28  1  0  0  0  0
  6  7  1  0  0  0  0
  6 25  1  0  0  0  0
  6 26  1  0  0  0  0
  7 29  1  0  0  0  0
  7 30  1  0  0  0  0
  8 10  2  0  0  0  0
  8 11  1  0  0  0  0
 10 14  1  0  0  0  0
 10 32  1  0  0  0  0
 11 15  2  0  0  0  0
 11 33  1  0  0  0  0
 12 13  1  0  0  0  0
 12 34  1  0  0  0  0
 12 35  1  0  0  0  0
 13 16  1  0  0  0  0
 13 36  1  0  0  0  0
 13 37  1  0  0  0  0
 14 17  2  0  0  0  0
 14 38  1  0  0  0  0
 15 17  1  0  0  0  0
 15 39  1  0  0  0  0
 16 18  1  0  0  0  0
 16 19  2  0  0  0  0
 17 40  1  0  0  0  0
 18 20  1  0  0  0  0
 18 21  2  0  0  0  0
 19 41  1  0  0  0  0
 20 22  2  0  0  0  0
 21 23  1  0  0  0  0
 21 43  1  0  0  0  0
 22 24  1  0  0  0  0
 22 44  1  0  0  0  0
 23 24  2  0  0  0  0
 23 45  1  0  0  0  0
 24 46  1  0  0  0  0
M  END
> <PUBCHEM_COMPOUND_CID>
31940890

> <PUBCHEM_COMPOUND_CANONICALIZED>
1

> <PUBCHEM_CACTVS_COMPLEXITY>
439

> <PUBCHEM_CACTVS_HBOND_ACCEPTOR>
1

> <PUBCHEM_CACTVS_HBOND_DONOR>
2

> <PUBCHEM_CACTVS_ROTATABLE_BOND>
5

> <PUBCHEM_CACTVS_SUBSKEYS>
AAADceB7IAAAAAAAAAAAAAAAAABgAWAAAAAwYAAAAAAAAFgB9AAAHgAQAAAADgjBngQ8wPLJkACoAzV3VACCgCAxAiAI2aE4ZJgIIPLAlZGEIAhglgDIyAcYiMCPgAAAAAACAAAAAAAAAAQAAAAAAAAAAA==

> <PUBCHEM_IUPAC_OPENEYE_NAME>
N-[2-(1H-indol-3-yl)ethyl]-1-phenyl-cyclobutanecarboxamide

> <PUBCHEM_IUPAC_CAS_NAME>
N-[2-(1H-indol-3-yl)ethyl]-1-phenyl-1-cyclobutanecarboxamide

> <PUBCHEM_IUPAC_NAME>
N-[2-(1H-indol-3-yl)ethyl]-1-phenylcyclobutane-1-carboxamide

> <PUBCHEM_IUPAC_SYSTEMATIC_NAME>
N-[2-(1H-indol-3-yl)ethyl]-1-phenyl-cyclobutane-1-carboxamide

> <PUBCHEM_IUPAC_TRADITIONAL_NAME>
N-[2-(1H-indol-3-yl)ethyl]-1-phenyl-cyclobutanecarboxamide

> <PUBCHEM_IUPAC_INCHI>
InChI=1S/C21H22N2O/c24-20(21(12-6-13-21)17-7-2-1-3-8-17)22-14-11-16-15-23-19-10-5-4-9-18(16)19/h1-5,7-10,15,23H,6,11-14H2,(H,22,24)

> <PUBCHEM_IUPAC_INCHIKEY>
JOWLELLHNKSGPW-UHFFFAOYSA-N

> <PUBCHEM_XLOGP3>
4.3

> <PUBCHEM_EXACT_MASS>
318.173213

> <PUBCHEM_MOLECULAR_FORMULA>
C21H22N2O

> <PUBCHEM_MOLECULAR_WEIGHT>
318.41218

> <PUBCHEM_OPENEYE_CAN_SMILES>
C1CC(C1)(C2=CC=CC=C2)C(=O)NCCC3=CNC4=CC=CC=C43

> <PUBCHEM_OPENEYE_ISO_SMILES>
C1CC(C1)(C2=CC=CC=C2)C(=O)NCCC3=CNC4=CC=CC=C43

> <PUBCHEM_CACTVS_TPSA>
44.9

> <PUBCHEM_MONOISOTOPIC_WEIGHT>
318.173213

> <PUBCHEM_TOTAL_CHARGE>
0

> <PUBCHEM_HEAVY_ATOM_COUNT>
24

> <PUBCHEM_ATOM_DEF_STEREO_COUNT>
0

> <PUBCHEM_ATOM_UDEF_STEREO_COUNT>
0

> <PUBCHEM_BOND_DEF_STEREO_COUNT>
0

> <PUBCHEM_BOND_UDEF_STEREO_COUNT>
0

> <PUBCHEM_ISOTOPIC_ATOM_COUNT>
0

> <PUBCHEM_COMPONENT_COUNT>
1

> <PUBCHEM_CACTVS_TAUTO_COUNT>
2

> <PUBCHEM_COORDINATE_TYPE>
1
5
255

> <PUBCHEM_BONDANNOTATIONS>
10  14  8
11  15  8
14  17  8
15  17  8
16  18  8
16  19  8
18  20  8
18  21  8
20  22  8
21  23  8
22  24  8
23  24  8
3  19  8
3  20  8
8  10  8
8  11  8

$$$$
31947166
  -OEChem-06111304232D

 46 49  0     0  0  0  0  0  0999 V2000
    8.4641    3.2990    0.0000 O   0  0  0  0  0  0  0  0  0  0  0  0
    5.0000   -0.7010    0.0000 N   0  3  0  0  0  0  0  0  0  0  0  0
    8.4641    0.2990    0.0000 N   0  0  0  0  0  0  0  0  0  0  0  0
    7.5981    1.7990    0.0000 N   0  0  0  0  0  0  0  0  0  0  0  0
    6.7320    0.2990    0.0000 C   0  0  0  0  0  0  0  0  0  0  0  0
    5.8660   -1.2010    0.0000 C   0  0  0  0  0  0  0  0  0  0  0  0
    5.0000    0.2990    0.0000 C   0  0  0  0  0  0  0  0  0  0  0  0
    5.8660    0.7990    0.0000 C   0  0  0  0  0  0  0  0  0  0  0  0
    6.7320   -0.7010    0.0000 C   0  0  0  0  0  0  0  0  0  0  0  0
    4.0000   -0.7010    0.0000 C   0  0  0  0  0  0  0  0  0  0  0  0
    7.5981    0.7990    0.0000 C   0  0  0  0  0  0  0  0  0  0  0  0
    3.5000   -1.5670    0.0000 C   0  0  0  0  0  0  0  0  0  0  0  0
    9.3301    0.7990    0.0000 C   0  0  0  0  0  0  0  0  0  0  0  0
    4.0000   -2.4330    0.0000 C   0  0  0  0  0  0  0  0  0  0  0  0
    2.5000   -1.5670    0.0000 C   0  0  0  0  0  0  0  0  0  0  0  0
    9.3301    1.7990    0.0000 C   0  0  0  0  0  0  0  0  0  0  0  0
    8.4641    2.2990    0.0000 C   0  0  0  0  0  0  0  0  0  0  0  0
    3.5000   -3.2990    0.0000 C   0  0  0  0  0  0  0  0  0  0  0  0
    2.0000   -2.4330    0.0000 C   0  0  0  0  0  0  0  0  0  0  0  0
   10.2241    0.2644    0.0000 C   0  0  0  0  0  0  0  0  0  0  0  0
   10.2241    2.3337    0.0000 C   0  0  0  0  0  0  0  0  0  0  0  0
    2.5000   -3.2990    0.0000 C   0  0  0  0  0  0  0  0  0  0  0  0
   11.1301    0.7782    0.0000 C   0  0  0  0  0  0  0  0  0  0  0  0
   11.1301    1.8198    0.0000 C   0  0  0  0  0  0  0  0  0  0  0  0
    4.6900   -1.2379    0.0000 H   0  0  0  0  0  0  0  0  0  0  0  0
    6.7320    0.9190    0.0000 H   0  0  0  0  0  0  0  0  0  0  0  0
    4.7880    0.8816    0.0000 H   0  0  0  0  0  0  0  0  0  0  0  0
    4.3894    0.1914    0.0000 H   0  0  0  0  0  0  0  0  0  0  0  0
    5.4675   -1.6759    0.0000 H   0  0  0  0  0  0  0  0  0  0  0  0
    6.2646   -1.6759    0.0000 H   0  0  0  0  0  0  0  0  0  0  0  0
    6.2646    1.2740    0.0000 H   0  0  0  0  0  0  0  0  0  0  0  0
    5.4675    1.2740    0.0000 H   0  0  0  0  0  0  0  0  0  0  0  0
    6.9441   -1.2836    0.0000 H   0  0  0  0  0  0  0  0  0  0  0  0
    7.3426   -0.5933    0.0000 H   0  0  0  0  0  0  0  0  0  0  0  0
    4.1077   -0.0904    0.0000 H   0  0  0  0  0  0  0  0  0  0  0  0
    3.4174   -0.4889    0.0000 H   0  0  0  0  0  0  0  0  0  0  0  0
    8.4641   -0.3210    0.0000 H   0  0  0  0  0  0  0  0  0  0  0  0
    4.6200   -2.4330    0.0000 H   0  0  0  0  0  0  0  0  0  0  0  0
    2.1900   -1.0300    0.0000 H   0  0  0  0  0  0  0  0  0  0  0  0
    3.8100   -3.8360    0.0000 H   0  0  0  0  0  0  0  0  0  0  0  0
    1.3800   -2.4330    0.0000 H   0  0  0  0  0  0  0  0  0  0  0  0
   10.2169   -0.3556    0.0000 H   0  0  0  0  0  0  0  0  0  0  0  0
   10.2169    2.9537    0.0000 H   0  0  0  0  0  0  0  0  0  0  0  0
    2.1900   -3.8360    0.0000 H   0  0  0  0  0  0  0  0  0  0  0  0
   11.6659    0.4662    0.0000 H   0  0  0  0  0  0  0  0  0  0  0  0
   11.6659    2.1319    0.0000 H   0  0  0  0  0  0  0  0  0  0  0  0
  1 17  2  0  0  0  0
  2  6  1  0  0  0  0
  2  7  1  0  0  0  0
  2 10  1  0  0  0  0
  2 25  1  0  0  0  0
  3 11  1  0  0  0  0
  3 13  1  0  0  0  0
  3 37  1  0  0  0  0
  4 11  2  0  0  0  0
  4 17  1  0  0  0  0
  5  8  1  0  0  0  0
  5  9  1  0  0  0  0
  5 11  1  0  0  0  0
  5 26  1  0  0  0  0
  6  9  1  0  0  0  0
  6 29  1  0  0  0  0
  6 30  1  0  0  0  0
  7  8  1  0  0  0  0
  7 27  1  0  0  0  0
  7 28  1  0  0  0  0
  8 31  1  0  0  0  0
  8 32  1  0  0  0  0
  9 33  1  0  0  0  0
  9 34  1  0  0  0  0
 10 12  1  0  0  0  0
 10 35  1  0  0  0  0
 10 36  1  0  0  0  0
 12 14  2  0  0  0  0
 12 15  1  0  0  0  0
 13 16  1  0  0  0  0
 13 20  2  0  0  0  0
 14 18  1  0  0  0  0
 14 38  1  0  0  0  0
 15 19  2  0  0  0  0
 15 39  1  0  0  0  0
 16 17  1  0  0  0  0
 16 21  2  0  0  0  0
 18 22  2  0  0  0  0
 18 40  1  0  0  0  0
 19 22  1  0  0  0  0
 19 41  1  0  0  0  0
 20 23  1  0  0  0  0
 20 42  1  0  0  0  0
 21 24  1  0  0  0  0
 21 43  1  0  0  0  0
 22 44  1  0  0  0  0
 23 24  2  0  0  0  0
 23 45  1  0  0  0  0
 24 46  1  0  0  0  0
M  CHG  1   2   1
M  END
> <PUBCHEM_COMPOUND_CID>
31947166

> <PUBCHEM_COMPOUND_CANONICALIZED>
1

> <PUBCHEM_CACTVS_COMPLEXITY>
475

> <PUBCHEM_CACTVS_HBOND_ACCEPTOR>
1

> <PUBCHEM_CACTVS_HBOND_DONOR>
2

> <PUBCHEM_CACTVS_ROTATABLE_BOND>
3

> <PUBCHEM_CACTVS_SUBSKEYS>
AAADceB7IAAAAAAAAAAAAAAAAAAAAAAAAAA8YIEAAAAAAACBQAAAHgAQAAAADQjBmAQxwIPAAACoAidydACCAAElAgAJiIE4ZMgIIDrA3ZGEIYhgkADIyccYiACOAAAAAAACAAAAAAAAAAQAAAAAAAAAAA==

> <PUBCHEM_IUPAC_OPENEYE_NAME>
2-(1-benzylpiperidin-1-ium-4-yl)-1H-quinazolin-4-one

> <PUBCHEM_IUPAC_CAS_NAME>
2-[1-(phenylmethyl)-4-piperidin-1-iumyl]-1H-quinazolin-4-one

> <PUBCHEM_IUPAC_NAME>
2-(1-benzylpiperidin-1-ium-4-yl)-1H-quinazolin-4-one

> <PUBCHEM_IUPAC_SYSTEMATIC_NAME>
2-[1-(phenylmethyl)piperidin-1-ium-4-yl]-1H-quinazolin-4-one

> <PUBCHEM_IUPAC_TRADITIONAL_NAME>
2-(1-benzylpiperidin-1-ium-4-yl)-1H-quinazolin-4-one

> <PUBCHEM_IUPAC_INCHI>
InChI=1S/C20H21N3O/c24-20-17-8-4-5-9-18(17)21-19(22-20)16-10-12-23(13-11-16)14-15-6-2-1-3-7-15/h1-9,16H,10-14H2,(H,21,22,24)/p+1

> <PUBCHEM_IUPAC_INCHIKEY>
SPNBNPZXUXLEBL-UHFFFAOYSA-O

> <PUBCHEM_XLOGP3>
3.2

> <PUBCHEM_EXACT_MASS>
320.176287

> <PUBCHEM_MOLECULAR_FORMULA>
C20H22N3O+

> <PUBCHEM_MOLECULAR_WEIGHT>
320.40818

> <PUBCHEM_OPENEYE_CAN_SMILES>
C1C[NH+](CCC1C2=NC(=O)C3=CC=CC=C3N2)CC4=CC=CC=C4

> <PUBCHEM_OPENEYE_ISO_SMILES>
C1C[NH+](CCC1C2=NC(=O)C3=CC=CC=C3N2)CC4=CC=CC=C4

> <PUBCHEM_CACTVS_TPSA>
45.9

> <PUBCHEM_MONOISOTOPIC_WEIGHT>
320.176287

> <PUBCHEM_TOTAL_CHARGE>
1

> <PUBCHEM_HEAVY_ATOM_COUNT>
24

> <PUBCHEM_ATOM_DEF_STEREO_COUNT>
0

> <PUBCHEM_ATOM_UDEF_STEREO_COUNT>
0

> <PUBCHEM_BOND_DEF_STEREO_COUNT>
0

> <PUBCHEM_BOND_UDEF_STEREO_COUNT>
0

> <PUBCHEM_ISOTOPIC_ATOM_COUNT>
0

> <PUBCHEM_COMPONENT_COUNT>
1

> <PUBCHEM_CACTVS_TAUTO_COUNT>
10

> <PUBCHEM_COORDINATE_TYPE>
1
5
255

> <PUBCHEM_BONDANNOTATIONS>
12  14  8
12  15  8
13  16  8
13  20  8
14  18  8
15  19  8
16  17  8
16  21  8
18  22  8
19  22  8
20  23  8
21  24  8
23  24  8
3  11  8
3  13  8
4  11  8
4  17  8

$$$$
