32397723
  -OEChem-03061302522D

 38 40  0     0  0  0  0  0  0999 V2000
    7.9244   -0.0311    0.0000 O   0  0  0  0  0  0  0  0  0  0  0  0
    7.5673    1.6638    0.0000 N   0  0  0  0  0  0  0  0  0  0  0  0
    6.2781    0.5070    0.0000 N   0  0  0  0  0  0  0  0  0  0  0  0
    4.6783   -3.2097    0.0000 N   0  0  0  0  0  0  0  0  0  0  0  0
    8.8564    2.8205    0.0000 C   0  0  0  0  0  0  0  0  0  0  0  0
    9.6007    3.4884    0.0000 C   0  0  0  0  0  0  0  0  0  0  0  0
    8.6502    3.7990    0.0000 C   0  0  0  0  0  0  0  0  0  0  0  0
    8.5458    1.8700    0.0000 C   0  0  0  0  0  0  0  0  0  0  0  0
    7.2566    0.7133    0.0000 C   0  0  0  0  0  0  0  0  0  0  0  0
    4.9889   -0.6497    0.0000 C   0  0  0  0  0  0  0  0  0  0  0  0
    5.9674   -0.4435    0.0000 C   0  0  0  0  0  0  0  0  0  0  0  0
    4.6783   -1.6002    0.0000 C   0  0  0  0  0  0  0  0  0  0  0  0
    3.7320   -1.9050    0.0000 C   0  0  0  0  0  0  0  0  0  0  0  0
    3.7320   -2.9050    0.0000 C   0  0  0  0  0  0  0  0  0  0  0  0
    5.2619   -2.4050    0.0000 C   0  0  0  0  0  0  0  0  0  0  0  0
    2.8660   -1.4050    0.0000 C   0  0  0  0  0  0  0  0  0  0  0  0
    2.8660   -3.4050    0.0000 C   0  0  0  0  0  0  0  0  0  0  0  0
    2.0000   -1.9050    0.0000 C   0  0  0  0  0  0  0  0  0  0  0  0
    2.0000   -2.9050    0.0000 C   0  0  0  0  0  0  0  0  0  0  0  0
    8.2373    2.8540    0.0000 H   0  0  0  0  0  0  0  0  0  0  0  0
   10.0886    3.1058    0.0000 H   0  0  0  0  0  0  0  0  0  0  0  0
    9.8928    4.0353    0.0000 H   0  0  0  0  0  0  0  0  0  0  0  0
    8.7376    4.4128    0.0000 H   0  0  0  0  0  0  0  0  0  0  0  0
    8.0306    3.7784    0.0000 H   0  0  0  0  0  0  0  0  0  0  0  0
    8.5663    1.2503    0.0000 H   0  0  0  0  0  0  0  0  0  0  0  0
    9.1596    1.7826    0.0000 H   0  0  0  0  0  0  0  0  0  0  0  0
    7.1532    2.1252    0.0000 H   0  0  0  0  0  0  0  0  0  0  0  0
    4.9684   -0.0300    0.0000 H   0  0  0  0  0  0  0  0  0  0  0  0
    4.3751   -0.5624    0.0000 H   0  0  0  0  0  0  0  0  0  0  0  0
    5.9880   -1.0632    0.0000 H   0  0  0  0  0  0  0  0  0  0  0  0
    6.5812   -0.5308    0.0000 H   0  0  0  0  0  0  0  0  0  0  0  0
    5.8640    0.9685    0.0000 H   0  0  0  0  0  0  0  0  0  0  0  0
    5.8819   -2.4050    0.0000 H   0  0  0  0  0  0  0  0  0  0  0  0
    4.8709   -3.7990    0.0000 H   0  0  0  0  0  0  0  0  0  0  0  0
    2.8660   -0.7850    0.0000 H   0  0  0  0  0  0  0  0  0  0  0  0
    2.8660   -4.0250    0.0000 H   0  0  0  0  0  0  0  0  0  0  0  0
    1.4631   -1.5950    0.0000 H   0  0  0  0  0  0  0  0  0  0  0  0
    1.4631   -3.2150    0.0000 H   0  0  0  0  0  0  0  0  0  0  0  0
  1  9  2  0  0  0  0
  2  8  1  0  0  0  0
  2  9  1  0  0  0  0
  2 27  1  0  0  0  0
  3  9  1  0  0  0  0
  3 11  1  0  0  0  0
  3 32  1  0  0  0  0
  4 14  1  0  0  0  0
  4 15  1  0  0  0  0
  4 34  1  0  0  0  0
  5  6  1  0  0  0  0
  5  7  1  0  0  0  0
  5  8  1  0  0  0  0
  5 20  1  0  0  0  0
  6  7  1  0  0  0  0
  6 21  1  0  0  0  0
  6 22  1  0  0  0  0
  7 23  1  0  0  0  0
  7 24  1  0  0  0  0
  8 25  1  0  0  0  0
  8 26  1  0  0  0  0
 10 11  1  0  0  0  0
 10 12  1  0  0  0  0
 10 28  1  0  0  0  0
 10 29  1  0  0  0  0
 11 30  1  0  0  0  0
 11 31  1  0  0  0  0
 12 13  1  0  0  0  0
 12 15  2  0  0  0  0
 13 14  1  0  0  0  0
 13 16  2  0  0  0  0
 14 17  2  0  0  0  0
 15 33  1  0  0  0  0
 16 18  1  0  0  0  0
 16 35  1  0  0  0  0
 17 19  1  0  0  0  0
 17 36  1  0  0  0  0
 18 19  2  0  0  0  0
 18 37  1  0  0  0  0
 19 38  1  0  0  0  0
M  END
> <PUBCHEM_COMPOUND_CID>
32397723

> <PUBCHEM_COMPOUND_CANONICALIZED>
1

> <PUBCHEM_CACTVS_COMPLEXITY>
317

> <PUBCHEM_CACTVS_HBOND_ACCEPTOR>
1

> <PUBCHEM_CACTVS_HBOND_DONOR>
3

> <PUBCHEM_CACTVS_ROTATABLE_BOND>
5

> <PUBCHEM_CACTVS_SUBSKEYS>
AAADceBzIAAAAAAAAAAAAAAAGAAAAWAAAAAwAAAAAAAAAFgB8AAAHgAQAAAADQjBHgQ9wPLJkACoAzRnVACCgCAxAiAI2aA4ZJiIIOLAkZGEIAholgLIyAcQgMAOgAAAAAACAAAAAAAAAAQAAAAAAAAAAA==

> <PUBCHEM_IUPAC_OPENEYE_NAME>
1-(cyclopropylmethyl)-3-[2-(1H-indol-3-yl)ethyl]urea

> <PUBCHEM_IUPAC_CAS_NAME>
1-(cyclopropylmethyl)-3-[2-(1H-indol-3-yl)ethyl]urea

> <PUBCHEM_IUPAC_NAME>
1-(cyclopropylmethyl)-3-[2-(1H-indol-3-yl)ethyl]urea

> <PUBCHEM_IUPAC_SYSTEMATIC_NAME>
1-(cyclopropylmethyl)-3-[2-(1H-indol-3-yl)ethyl]urea

> <PUBCHEM_IUPAC_TRADITIONAL_NAME>
1-(cyclopropylmethyl)-3-[2-(1H-indol-3-yl)ethyl]urea

> <PUBCHEM_IUPAC_INCHI>
InChI=1S/C15H19N3O/c19-15(18-9-11-5-6-11)16-8-7-12-10-17-14-4-2-1-3-13(12)14/h1-4,10-11,17H,5-9H2,(H2,16,18,19)

> <PUBCHEM_IUPAC_INCHIKEY>
QGYKQBPGMZCBLX-UHFFFAOYSA-N

> <PUBCHEM_XLOGP3>
2.4

> <PUBCHEM_EXACT_MASS>
257.152812

> <PUBCHEM_MOLECULAR_FORMULA>
C15H19N3O

> <PUBCHEM_MOLECULAR_WEIGHT>
257.33086

> <PUBCHEM_OPENEYE_CAN_SMILES>
C1CC1CNC(=O)NCCC2=CNC3=CC=CC=C32

> <PUBCHEM_OPENEYE_ISO_SMILES>
C1CC1CNC(=O)NCCC2=CNC3=CC=CC=C32

> <PUBCHEM_CACTVS_TPSA>
56.9

> <PUBCHEM_MONOISOTOPIC_WEIGHT>
257.152812

> <PUBCHEM_TOTAL_CHARGE>
0

> <PUBCHEM_HEAVY_ATOM_COUNT>
19

> <PUBCHEM_ATOM_DEF_STEREO_COUNT>
0

> <PUBCHEM_ATOM_UDEF_STEREO_COUNT>
0

> <PUBCHEM_BOND_DEF_STEREO_COUNT>
0

> <PUBCHEM_BOND_UDEF_STEREO_COUNT>
0

> <PUBCHEM_ISOTOPIC_ATOM_COUNT>
0

> <PUBCHEM_COMPONENT_COUNT>
1

> <PUBCHEM_CACTVS_TAUTO_COUNT>
3

> <PUBCHEM_COORDINATE_TYPE>
1
5
255

> <PUBCHEM_BONDANNOTATIONS>
12  13  8
12  15  8
13  14  8
13  16  8
14  17  8
16  18  8
17  19  8
18  19  8
4  14  8
4  15  8

$$$$
