54853526
  -OEChem-11301218062D

 41 42  0     0  0  0  0  0  0999 V2000
    3.7320   -1.2673    0.0000 N   0  0  0  0  0  0  0  0  0  0  0  0
    2.8660   -1.7673    0.0000 C   0  0  0  0  0  0  0  0  0  0  0  0
    2.0000   -2.2673    0.0000 C   0  0  0  0  0  0  0  0  0  0  0  0
    3.7320   -0.2673    0.0000 C   0  0  0  0  0  0  0  0  0  0  0  0
    3.3660   -2.6334    0.0000 C   0  0  0  0  0  0  0  0  0  0  0  0
    2.3660   -0.9013    0.0000 C   0  0  0  0  0  0  0  0  0  0  0  0
    4.5981    0.2327    0.0000 C   0  0  0  0  0  0  0  0  0  0  0  0
    4.5981    1.2327    0.0000 C   0  0  0  0  0  0  0  0  0  0  0  0
    2.0000   -3.2673    0.0000 C   0  0  0  0  0  0  0  0  0  0  0  0
    5.4641    1.7327    0.0000 C   0  0  0  0  0  0  0  0  0  0  0  0
    5.4641    2.7327    0.0000 C   0  0  0  0  0  0  0  0  0  0  0  0
    3.7320    1.7327    0.0000 C   0  0  0  0  0  0  0  0  0  0  0  0
    6.3580    1.1980    0.0000 C   0  0  0  0  0  0  0  0  0  0  0  0
    4.5981    3.2327    0.0000 C   0  0  0  0  0  0  0  0  0  0  0  0
    3.7320    2.7327    0.0000 C   0  0  0  0  0  0  0  0  0  0  0  0
    6.3580    3.2673    0.0000 C   0  0  0  0  0  0  0  0  0  0  0  0
    7.2641    1.7118    0.0000 C   0  0  0  0  0  0  0  0  0  0  0  0
    7.2641    2.7535    0.0000 C   0  0  0  0  0  0  0  0  0  0  0  0
    1.7880   -1.6847    0.0000 H   0  0  0  0  0  0  0  0  0  0  0  0
    1.3894   -2.3750    0.0000 H   0  0  0  0  0  0  0  0  0  0  0  0
    4.2690   -1.5773    0.0000 H   0  0  0  0  0  0  0  0  0  0  0  0
    3.5200    0.3153    0.0000 H   0  0  0  0  0  0  0  0  0  0  0  0
    3.1215   -0.3750    0.0000 H   0  0  0  0  0  0  0  0  0  0  0  0
    2.8291   -2.9434    0.0000 H   0  0  0  0  0  0  0  0  0  0  0  0
    3.6760   -3.1703    0.0000 H   0  0  0  0  0  0  0  0  0  0  0  0
    3.9030   -2.3234    0.0000 H   0  0  0  0  0  0  0  0  0  0  0  0
    2.9030   -0.5913    0.0000 H   0  0  0  0  0  0  0  0  0  0  0  0
    2.0560   -0.3644    0.0000 H   0  0  0  0  0  0  0  0  0  0  0  0
    1.8291   -1.2113    0.0000 H   0  0  0  0  0  0  0  0  0  0  0  0
    4.8101   -0.3499    0.0000 H   0  0  0  0  0  0  0  0  0  0  0  0
    5.2087    0.3403    0.0000 H   0  0  0  0  0  0  0  0  0  0  0  0
    1.3800   -3.2673    0.0000 H   0  0  0  0  0  0  0  0  0  0  0  0
    2.0000   -3.8873    0.0000 H   0  0  0  0  0  0  0  0  0  0  0  0
    2.6200   -3.2673    0.0000 H   0  0  0  0  0  0  0  0  0  0  0  0
    3.1951    1.4227    0.0000 H   0  0  0  0  0  0  0  0  0  0  0  0
    6.3509    0.5780    0.0000 H   0  0  0  0  0  0  0  0  0  0  0  0
    4.5981    3.8527    0.0000 H   0  0  0  0  0  0  0  0  0  0  0  0
    3.1951    3.0427    0.0000 H   0  0  0  0  0  0  0  0  0  0  0  0
    6.3509    3.8873    0.0000 H   0  0  0  0  0  0  0  0  0  0  0  0
    7.7998    1.3998    0.0000 H   0  0  0  0  0  0  0  0  0  0  0  0
    7.7998    3.0656    0.0000 H   0  0  0  0  0  0  0  0  0  0  0  0
  1  2  1  0  0  0  0
  1  4  1  0  0  0  0
  1 21  1  0  0  0  0
  2  3  1  0  0  0  0
  2  5  1  0  0  0  0
  2  6  1  0  0  0  0
  3  9  1  0  0  0  0
  3 19  1  0  0  0  0
  3 20  1  0  0  0  0
  4  7  1  0  0  0  0
  4 22  1  0  0  0  0
  4 23  1  0  0  0  0
  5 24  1  0  0  0  0
  5 25  1  0  0  0  0
  5 26  1  0  0  0  0
  6 27  1  0  0  0  0
  6 28  1  0  0  0  0
  6 29  1  0  0  0  0
  7  8  1  0  0  0  0
  7 30  1  0  0  0  0
  7 31  1  0  0  0  0
  8 10  1  0  0  0  0
  8 12  2  0  0  0  0
  9 32  1  0  0  0  0
  9 33  1  0  0  0  0
  9 34  1  0  0  0  0
 10 11  1  0  0  0  0
 10 13  2  0  0  0  0
 11 14  1  0  0  0  0
 11 16  2  0  0  0  0
 12 15  1  0  0  0  0
 12 35  1  0  0  0  0
 13 17  1  0  0  0  0
 13 36  1  0  0  0  0
 14 15  2  0  0  0  0
 14 37  1  0  0  0  0
 15 38  1  0  0  0  0
 16 18  1  0  0  0  0
 16 39  1  0  0  0  0
 17 18  2  0  0  0  0
 17 40  1  0  0  0  0
 18 41  1  0  0  0  0
M  END
> <PUBCHEM_COMPOUND_CID>
54853526

> <PUBCHEM_COMPOUND_CANONICALIZED>
1

> <PUBCHEM_CACTVS_COMPLEXITY>
246

> <PUBCHEM_CACTVS_HBOND_ACCEPTOR>
1

> <PUBCHEM_CACTVS_HBOND_DONOR>
1

> <PUBCHEM_CACTVS_ROTATABLE_BOND>
5

> <PUBCHEM_CACTVS_SUBSKEYS>
AAADceB6AAAAAAAAAAAAAAAAAAAAAAAAAAAwYAAAAAAAAADBUAAAHAAQAAAADIjBGAQyAMLAAACAAiBCAAACAAAgAAAIiIAIAIgIICKAkRGEIAAgkACIiAcQgMAOgAACAAAQAAAAAAQAACAAAAAAAAAAAA==

> <PUBCHEM_IUPAC_OPENEYE_NAME>
2-methyl-N-[2-(1-naphthyl)ethyl]butan-2-amine

> <PUBCHEM_IUPAC_CAS_NAME>
2-methyl-N-[2-(1-naphthalenyl)ethyl]-2-butanamine

> <PUBCHEM_IUPAC_NAME>
2-methyl-N-(2-naphthalen-1-ylethyl)butan-2-amine

> <PUBCHEM_IUPAC_SYSTEMATIC_NAME>
2-methyl-N-(2-naphthalen-1-ylethyl)butan-2-amine

> <PUBCHEM_IUPAC_TRADITIONAL_NAME>
tert-amyl-[2-(1-naphthyl)ethyl]amine

> <PUBCHEM_IUPAC_INCHI>
InChI=1S/C17H23N/c1-4-17(2,3)18-13-12-15-10-7-9-14-8-5-6-11-16(14)15/h5-11,18H,4,12-13H2,1-3H3

> <PUBCHEM_IUPAC_INCHIKEY>
AXGGBXCIYKFPDN-UHFFFAOYSA-N

> <PUBCHEM_XLOGP3>
4.9

> <PUBCHEM_EXACT_MASS>
241.18305

> <PUBCHEM_MOLECULAR_FORMULA>
C17H23N

> <PUBCHEM_MOLECULAR_WEIGHT>
241.37122

> <PUBCHEM_OPENEYE_CAN_SMILES>
CCC(C)(C)NCCC1=CC=CC2=CC=CC=C21

> <PUBCHEM_OPENEYE_ISO_SMILES>
CCC(C)(C)NCCC1=CC=CC2=CC=CC=C21

> <PUBCHEM_CACTVS_TPSA>
12

> <PUBCHEM_MONOISOTOPIC_WEIGHT>
241.18305

> <PUBCHEM_TOTAL_CHARGE>
0

> <PUBCHEM_HEAVY_ATOM_COUNT>
18

> <PUBCHEM_ATOM_DEF_STEREO_COUNT>
0

> <PUBCHEM_ATOM_UDEF_STEREO_COUNT>
0

> <PUBCHEM_BOND_DEF_STEREO_COUNT>
0

> <PUBCHEM_BOND_UDEF_STEREO_COUNT>
0

> <PUBCHEM_ISOTOPIC_ATOM_COUNT>
0

> <PUBCHEM_COMPONENT_COUNT>
1

> <PUBCHEM_CACTVS_TAUTO_COUNT>
1

> <PUBCHEM_COORDINATE_TYPE>
1
5
255

> <PUBCHEM_BONDANNOTATIONS>
10  11  8
10  13  8
11  14  8
11  16  8
12  15  8
13  17  8
14  15  8
16  18  8
17  18  8
8  10  8
8  12  8

$$$$
