30427527
  -OEChem-12041211412D

 25 26  0     0  0  0  0  0  0999 V2000
    2.0000   -2.4330    0.0000 F   0  0  0  0  0  0  0  0  0  0  0  0
    4.5981    1.0670    0.0000 N   0  3  0  0  0  0  0  0  0  0  0  0
    5.4641    1.5670    0.0000 C   0  0  0  0  0  0  0  0  0  0  0  0
    6.4641    1.5670    0.0000 C   0  0  0  0  0  0  0  0  0  0  0  0
    5.9641    2.4330    0.0000 C   0  0  0  0  0  0  0  0  0  0  0  0
    3.7320    0.5670    0.0000 C   0  0  0  0  0  0  0  0  0  0  0  0
    3.7320   -0.4330    0.0000 C   0  0  0  0  0  0  0  0  0  0  0  0
    2.8660   -0.9330    0.0000 C   0  0  0  0  0  0  0  0  0  0  0  0
    4.5981   -0.9330    0.0000 C   0  0  0  0  0  0  0  0  0  0  0  0
    2.8660   -1.9330    0.0000 C   0  0  0  0  0  0  0  0  0  0  0  0
    4.5981   -1.9330    0.0000 C   0  0  0  0  0  0  0  0  0  0  0  0
    3.7320   -2.4330    0.0000 C   0  0  0  0  0  0  0  0  0  0  0  0
    5.6246    0.9681    0.0000 H   0  0  0  0  0  0  0  0  0  0  0  0
    6.5718    0.9564    0.0000 H   0  0  0  0  0  0  0  0  0  0  0  0
    7.0467    1.7790    0.0000 H   0  0  0  0  0  0  0  0  0  0  0  0
    6.4390    2.8315    0.0000 H   0  0  0  0  0  0  0  0  0  0  0  0
    5.4892    2.8315    0.0000 H   0  0  0  0  0  0  0  0  0  0  0  0
    4.2881    1.6039    0.0000 H   0  0  0  0  0  0  0  0  0  0  0  0
    4.9081    0.5301    0.0000 H   0  0  0  0  0  0  0  0  0  0  0  0
    3.5200    1.1496    0.0000 H   0  0  0  0  0  0  0  0  0  0  0  0
    3.1215    0.4593    0.0000 H   0  0  0  0  0  0  0  0  0  0  0  0
    2.3291   -0.6230    0.0000 H   0  0  0  0  0  0  0  0  0  0  0  0
    5.1350   -0.6230    0.0000 H   0  0  0  0  0  0  0  0  0  0  0  0
    5.1350   -2.2430    0.0000 H   0  0  0  0  0  0  0  0  0  0  0  0
    3.7320   -3.0530    0.0000 H   0  0  0  0  0  0  0  0  0  0  0  0
  1 10  1  0  0  0  0
  2  3  1  0  0  0  0
  2  6  1  0  0  0  0
  2 18  1  0  0  0  0
  2 19  1  0  0  0  0
  3  4  1  0  0  0  0
  3  5  1  0  0  0  0
  3 13  1  0  0  0  0
  4  5  1  0  0  0  0
  4 14  1  0  0  0  0
  4 15  1  0  0  0  0
  5 16  1  0  0  0  0
  5 17  1  0  0  0  0
  6  7  1  0  0  0  0
  6 20  1  0  0  0  0
  6 21  1  0  0  0  0
  7  8  2  0  0  0  0
  7  9  1  0  0  0  0
  8 10  1  0  0  0  0
  8 22  1  0  0  0  0
  9 11  2  0  0  0  0
  9 23  1  0  0  0  0
 10 12  2  0  0  0  0
 11 12  1  0  0  0  0
 11 24  1  0  0  0  0
 12 25  1  0  0  0  0
M  CHG  1   2   1
M  END
> <PUBCHEM_COMPOUND_CID>
30427527

> <PUBCHEM_COMPOUND_CANONICALIZED>
1

> <PUBCHEM_CACTVS_COMPLEXITY>
145

> <PUBCHEM_CACTVS_HBOND_ACCEPTOR>
1

> <PUBCHEM_CACTVS_HBOND_DONOR>
1

> <PUBCHEM_CACTVS_ROTATABLE_BOND>
3

> <PUBCHEM_CACTVS_SUBSKEYS>
AAADccByAQAAAAAAAAAAAAAAGAAAAAAAAAAwAAAAAAAAAAABAAAAHQAQAAAADCjBGAwwAILAAACAAiBCAACCAAAgAAAIiIAIBIgIICKAkRGEIAhgkACIiAcQgAAOAAAAAAAAAAAAAAAAAAAAAAAAAAAAAA==

> <PUBCHEM_IUPAC_OPENEYE_NAME>
cyclopropyl-[(3-fluorophenyl)methyl]ammonium

> <PUBCHEM_IUPAC_CAS_NAME>
cyclopropyl-[(3-fluorophenyl)methyl]ammonium

> <PUBCHEM_IUPAC_NAME>
cyclopropyl-[(3-fluorophenyl)methyl]azanium

> <PUBCHEM_IUPAC_SYSTEMATIC_NAME>
cyclopropyl-[(3-fluorophenyl)methyl]azanium

> <PUBCHEM_IUPAC_TRADITIONAL_NAME>
cyclopropyl-(3-fluorobenzyl)ammonium

> <PUBCHEM_IUPAC_INCHI>
InChI=1S/C10H12FN/c11-9-3-1-2-8(6-9)7-12-10-4-5-10/h1-3,6,10,12H,4-5,7H2/p+1

> <PUBCHEM_IUPAC_INCHIKEY>
RVYCJKKWPAMTIY-UHFFFAOYSA-O

> <PUBCHEM_XLOGP3>
2.3

> <PUBCHEM_EXACT_MASS>
166.103203

> <PUBCHEM_MOLECULAR_FORMULA>
C10H13FN+

> <PUBCHEM_MOLECULAR_WEIGHT>
166.215323

> <PUBCHEM_OPENEYE_CAN_SMILES>
C1CC1[NH2+]CC2=CC(=CC=C2)F

> <PUBCHEM_OPENEYE_ISO_SMILES>
C1CC1[NH2+]CC2=CC(=CC=C2)F

> <PUBCHEM_CACTVS_TPSA>
16.6

> <PUBCHEM_MONOISOTOPIC_WEIGHT>
166.103203

> <PUBCHEM_TOTAL_CHARGE>
1

> <PUBCHEM_HEAVY_ATOM_COUNT>
12

> <PUBCHEM_ATOM_DEF_STEREO_COUNT>
0

> <PUBCHEM_ATOM_UDEF_STEREO_COUNT>
0

> <PUBCHEM_BOND_DEF_STEREO_COUNT>
0

> <PUBCHEM_BOND_UDEF_STEREO_COUNT>
0

> <PUBCHEM_ISOTOPIC_ATOM_COUNT>
0

> <PUBCHEM_COMPONENT_COUNT>
1

> <PUBCHEM_CACTVS_TAUTO_COUNT>
1

> <PUBCHEM_COORDINATE_TYPE>
1
5
255

> <PUBCHEM_BONDANNOTATIONS>
10  12  8
11  12  8
7  8  8
7  9  8
8  10  8
9  11  8

$$$$
30427669
  -OEChem-12041211412D

 28 29  0     0  0  0  0  0  0999 V2000
    4.5981    1.0670    0.0000 N   0  3  0  0  0  0  0  0  0  0  0  0
    5.4641    1.5670    0.0000 C   0  0  0  0  0  0  0  0  0  0  0  0
    6.4641    1.5670    0.0000 C   0  0  0  0  0  0  0  0  0  0  0  0
    5.9641    2.4330    0.0000 C   0  0  0  0  0  0  0  0  0  0  0  0
    3.7320    0.5670    0.0000 C   0  0  0  0  0  0  0  0  0  0  0  0
    3.7320   -0.4330    0.0000 C   0  0  0  0  0  0  0  0  0  0  0  0
    2.8660   -0.9330    0.0000 C   0  0  0  0  0  0  0  0  0  0  0  0
    4.5981   -0.9330    0.0000 C   0  0  0  0  0  0  0  0  0  0  0  0
    2.8660   -1.9330    0.0000 C   0  0  0  0  0  0  0  0  0  0  0  0
    4.5981   -1.9330    0.0000 C   0  0  0  0  0  0  0  0  0  0  0  0
    3.7320   -2.4330    0.0000 C   0  0  0  0  0  0  0  0  0  0  0  0
    2.0000   -2.4330    0.0000 C   0  0  0  0  0  0  0  0  0  0  0  0
    5.6246    0.9681    0.0000 H   0  0  0  0  0  0  0  0  0  0  0  0
    6.5718    0.9564    0.0000 H   0  0  0  0  0  0  0  0  0  0  0  0
    7.0467    1.7790    0.0000 H   0  0  0  0  0  0  0  0  0  0  0  0
    6.4390    2.8315    0.0000 H   0  0  0  0  0  0  0  0  0  0  0  0
    5.4892    2.8315    0.0000 H   0  0  0  0  0  0  0  0  0  0  0  0
    4.2881    1.6039    0.0000 H   0  0  0  0  0  0  0  0  0  0  0  0
    4.9081    0.5301    0.0000 H   0  0  0  0  0  0  0  0  0  0  0  0
    3.5200    1.1496    0.0000 H   0  0  0  0  0  0  0  0  0  0  0  0
    3.1215    0.4593    0.0000 H   0  0  0  0  0  0  0  0  0  0  0  0
    2.3291   -0.6230    0.0000 H   0  0  0  0  0  0  0  0  0  0  0  0
    5.1350   -0.6230    0.0000 H   0  0  0  0  0  0  0  0  0  0  0  0
    5.1350   -2.2430    0.0000 H   0  0  0  0  0  0  0  0  0  0  0  0
    3.7320   -3.0530    0.0000 H   0  0  0  0  0  0  0  0  0  0  0  0
    1.6900   -1.8961    0.0000 H   0  0  0  0  0  0  0  0  0  0  0  0
    1.4631   -2.7430    0.0000 H   0  0  0  0  0  0  0  0  0  0  0  0
    2.3100   -2.9700    0.0000 H   0  0  0  0  0  0  0  0  0  0  0  0
  1  2  1  0  0  0  0
  1  5  1  0  0  0  0
  1 18  1  0  0  0  0
  1 19  1  0  0  0  0
  2  3  1  0  0  0  0
  2  4  1  0  0  0  0
  2 13  1  0  0  0  0
  3  4  1  0  0  0  0
  3 14  1  0  0  0  0
  3 15  1  0  0  0  0
  4 16  1  0  0  0  0
  4 17  1  0  0  0  0
  5  6  1  0  0  0  0
  5 20  1  0  0  0  0
  5 21  1  0  0  0  0
  6  7  1  0  0  0  0
  6  8  2  0  0  0  0
  7  9  2  0  0  0  0
  7 22  1  0  0  0  0
  8 10  1  0  0  0  0
  8 23  1  0  0  0  0
  9 11  1  0  0  0  0
  9 12  1  0  0  0  0
 10 11  2  0  0  0  0
 10 24  1  0  0  0  0
 11 25  1  0  0  0  0
 12 26  1  0  0  0  0
 12 27  1  0  0  0  0
 12 28  1  0  0  0  0
M  CHG  1   1   1
M  END
> <PUBCHEM_COMPOUND_CID>
30427669

> <PUBCHEM_COMPOUND_CANONICALIZED>
1

> <PUBCHEM_CACTVS_COMPLEXITY>
140

> <PUBCHEM_CACTVS_HBOND_ACCEPTOR>
0

> <PUBCHEM_CACTVS_HBOND_DONOR>
1

> <PUBCHEM_CACTVS_ROTATABLE_BOND>
3

> <PUBCHEM_CACTVS_SUBSKEYS>
AAADceByAAAAAAAAAAAAAAAAGAAAAAAAAAAwAAAAAAAAAAABAAAAHAAQAAAADCjBGAQyAILAAACAAiBCAACCAAAgAAAIiIAIBIgIICKAkRGEIAhgkACIiAcQgEAOAAACAAAAAAAAAAQAAAAAAAAAAAAAAA==

> <PUBCHEM_IUPAC_OPENEYE_NAME>
cyclopropyl(m-tolylmethyl)ammonium

> <PUBCHEM_IUPAC_CAS_NAME>
cyclopropyl-[(3-methylphenyl)methyl]ammonium

> <PUBCHEM_IUPAC_NAME>
cyclopropyl-[(3-methylphenyl)methyl]azanium

> <PUBCHEM_IUPAC_SYSTEMATIC_NAME>
cyclopropyl-[(3-methylphenyl)methyl]azanium

> <PUBCHEM_IUPAC_TRADITIONAL_NAME>
cyclopropyl-(3-methylbenzyl)ammonium

> <PUBCHEM_IUPAC_INCHI>
InChI=1S/C11H15N/c1-9-3-2-4-10(7-9)8-12-11-5-6-11/h2-4,7,11-12H,5-6,8H2,1H3/p+1

> <PUBCHEM_IUPAC_INCHIKEY>
LJBFNXZKZYKGFY-UHFFFAOYSA-O

> <PUBCHEM_XLOGP3>
2.4

> <PUBCHEM_EXACT_MASS>
162.128275

> <PUBCHEM_MOLECULAR_FORMULA>
C11H16N+

> <PUBCHEM_MOLECULAR_WEIGHT>
162.25144

> <PUBCHEM_OPENEYE_CAN_SMILES>
CC1=CC(=CC=C1)C[NH2+]C2CC2

> <PUBCHEM_OPENEYE_ISO_SMILES>
CC1=CC(=CC=C1)C[NH2+]C2CC2

> <PUBCHEM_CACTVS_TPSA>
16.6

> <PUBCHEM_MONOISOTOPIC_WEIGHT>
162.128275

> <PUBCHEM_TOTAL_CHARGE>
1

> <PUBCHEM_HEAVY_ATOM_COUNT>
12

> <PUBCHEM_ATOM_DEF_STEREO_COUNT>
0

> <PUBCHEM_ATOM_UDEF_STEREO_COUNT>
0

> <PUBCHEM_BOND_DEF_STEREO_COUNT>
0

> <PUBCHEM_BOND_UDEF_STEREO_COUNT>
0

> <PUBCHEM_ISOTOPIC_ATOM_COUNT>
0

> <PUBCHEM_COMPONENT_COUNT>
1

> <PUBCHEM_CACTVS_TAUTO_COUNT>
1

> <PUBCHEM_COORDINATE_TYPE>
1
5
255

> <PUBCHEM_BONDANNOTATIONS>
10  11  8
6  7  8
6  8  8
7  9  8
8  10  8
9  11  8

$$$$
30440661
  -OEChem-12041211412D

 40 41  0     0  0  0  0  0  0999 V2000
    3.5000   -2.8170    0.0000 N   0  3  0  0  0  0  0  0  0  0  0  0
    3.5000   -0.8170    0.0000 N   0  0  0  0  0  0  0  0  0  0  0  0
    2.6340   -2.3170    0.0000 C   0  0  0  0  0  0  0  0  0  0  0  0
    4.3660   -2.3170    0.0000 C   0  0  0  0  0  0  0  0  0  0  0  0
    4.3660   -1.3170    0.0000 C   0  0  0  0  0  0  0  0  0  0  0  0
    2.6340   -1.3170    0.0000 C   0  0  0  0  0  0  0  0  0  0  0  0
    3.0000   -3.6830    0.0000 C   0  0  0  0  0  0  0  0  0  0  0  0
    3.5000    0.1830    0.0000 C   0  0  0  0  0  0  0  0  0  0  0  0
    2.0000   -3.6830    0.0000 C   0  0  0  0  0  0  0  0  0  0  0  0
    4.3660    0.6830    0.0000 C   0  0  0  0  0  0  0  0  0  0  0  0
    4.3660    1.6830    0.0000 C   0  0  0  0  0  0  0  0  0  0  0  0
    5.2320    2.1830    0.0000 C   0  0  0  0  0  0  0  0  0  0  0  0
    5.2320    3.1830    0.0000 C   0  0  0  0  0  0  0  0  0  0  0  0
    6.0981    1.6830    0.0000 C   0  0  0  0  0  0  0  0  0  0  0  0
    6.0981    3.6830    0.0000 C   0  0  0  0  0  0  0  0  0  0  0  0
    6.9641    2.1830    0.0000 C   0  0  0  0  0  0  0  0  0  0  0  0
    6.9641    3.1830    0.0000 C   0  0  0  0  0  0  0  0  0  0  0  0
    3.8100   -3.3539    0.0000 H   0  0  0  0  0  0  0  0  0  0  0  0
    2.0234   -2.2093    0.0000 H   0  0  0  0  0  0  0  0  0  0  0  0
    2.4219   -2.8996    0.0000 H   0  0  0  0  0  0  0  0  0  0  0  0
    4.5781   -2.8996    0.0000 H   0  0  0  0  0  0  0  0  0  0  0  0
    4.9766   -2.2093    0.0000 H   0  0  0  0  0  0  0  0  0  0  0  0
    4.9766   -1.4246    0.0000 H   0  0  0  0  0  0  0  0  0  0  0  0
    4.5781   -0.7344    0.0000 H   0  0  0  0  0  0  0  0  0  0  0  0
    2.4219   -0.7344    0.0000 H   0  0  0  0  0  0  0  0  0  0  0  0
    2.0234   -1.4246    0.0000 H   0  0  0  0  0  0  0  0  0  0  0  0
    2.8923   -4.2936    0.0000 H   0  0  0  0  0  0  0  0  0  0  0  0
    3.5826   -3.8951    0.0000 H   0  0  0  0  0  0  0  0  0  0  0  0
    3.2880    0.7656    0.0000 H   0  0  0  0  0  0  0  0  0  0  0  0
    2.8894    0.0754    0.0000 H   0  0  0  0  0  0  0  0  0  0  0  0
    2.0000   -3.0630    0.0000 H   0  0  0  0  0  0  0  0  0  0  0  0
    1.3800   -3.6830    0.0000 H   0  0  0  0  0  0  0  0  0  0  0  0
    2.0000   -4.3030    0.0000 H   0  0  0  0  0  0  0  0  0  0  0  0
    4.9030    0.3730    0.0000 H   0  0  0  0  0  0  0  0  0  0  0  0
    3.8291    1.9930    0.0000 H   0  0  0  0  0  0  0  0  0  0  0  0
    4.6951    3.4930    0.0000 H   0  0  0  0  0  0  0  0  0  0  0  0
    6.0981    1.0630    0.0000 H   0  0  0  0  0  0  0  0  0  0  0  0
    6.0981    4.3030    0.0000 H   0  0  0  0  0  0  0  0  0  0  0  0
    7.5010    1.8730    0.0000 H   0  0  0  0  0  0  0  0  0  0  0  0
    7.5010    3.4930    0.0000 H   0  0  0  0  0  0  0  0  0  0  0  0
  1  3  1  0  0  0  0
  1  4  1  0  0  0  0
  1  7  1  0  0  0  0
  1 18  1  0  0  0  0
  2  5  1  0  0  0  0
  2  6  1  0  0  0  0
  2  8  1  0  0  0  0
  3  6  1  0  0  0  0
  3 19  1  0  0  0  0
  3 20  1  0  0  0  0
  4  5  1  0  0  0  0
  4 21  1  0  0  0  0
  4 22  1  0  0  0  0
  5 23  1  0  0  0  0
  5 24  1  0  0  0  0
  6 25  1  0  0  0  0
  6 26  1  0  0  0  0
  7  9  1  0  0  0  0
  7 27  1  0  0  0  0
  7 28  1  0  0  0  0
  8 10  1  0  0  0  0
  8 29  1  0  0  0  0
  8 30  1  0  0  0  0
  9 31  1  0  0  0  0
  9 32  1  0  0  0  0
  9 33  1  0  0  0  0
 10 11  2  0  0  0  0
 10 34  1  0  0  0  0
 11 12  1  0  0  0  0
 11 35  1  0  0  0  0
 12 13  2  0  0  0  0
 12 14  1  0  0  0  0
 13 15  1  0  0  0  0
 13 36  1  0  0  0  0
 14 16  2  0  0  0  0
 14 37  1  0  0  0  0
 15 17  2  0  0  0  0
 15 38  1  0  0  0  0
 16 17  1  0  0  0  0
 16 39  1  0  0  0  0
 17 40  1  0  0  0  0
M  CHG  1   1   1
M  END
> <PUBCHEM_COMPOUND_CID>
30440661

> <PUBCHEM_COMPOUND_CANONICALIZED>
1

> <PUBCHEM_CACTVS_COMPLEXITY>
223

> <PUBCHEM_CACTVS_HBOND_ACCEPTOR>
1

> <PUBCHEM_CACTVS_HBOND_DONOR>
1

> <PUBCHEM_CACTVS_ROTATABLE_BOND>
4

> <PUBCHEM_CACTVS_SUBSKEYS>
AAADceBzAAAAAAAAAAAAAAAAAAAAAAAAAAA8QAAAAAAAAAABAAAAHAAQAAAADADBGAQyAIPAAACAAiBCAACCAAAgAAAIiIAIAIgIYCKAERCQIAAgkACIiAcAgAAOAAAAAAAAAAAAAAAAAAAAAAAAAAAAAA==

> <PUBCHEM_IUPAC_OPENEYE_NAME>
1-[(E)-cinnamyl]-4-ethyl-piperazin-4-ium

> <PUBCHEM_IUPAC_CAS_NAME>
1-ethyl-4-[(E)-3-phenylprop-2-enyl]piperazin-1-ium

> <PUBCHEM_IUPAC_NAME>
1-ethyl-4-[(E)-3-phenylprop-2-enyl]piperazin-1-ium

> <PUBCHEM_IUPAC_SYSTEMATIC_NAME>
1-ethyl-4-[(E)-3-phenylprop-2-enyl]piperazin-1-ium

> <PUBCHEM_IUPAC_TRADITIONAL_NAME>
1-[(E)-cinnamyl]-4-ethyl-piperazin-4-ium

> <PUBCHEM_IUPAC_INCHI>
InChI=1S/C15H22N2/c1-2-16-11-13-17(14-12-16)10-6-9-15-7-4-3-5-8-15/h3-9H,2,10-14H2,1H3/p+1/b9-6+

> <PUBCHEM_IUPAC_INCHIKEY>
NNVNWHFJCBUKDN-RMKNXTFCSA-O

> <PUBCHEM_XLOGP3>
2.9

> <PUBCHEM_EXACT_MASS>
231.186124

> <PUBCHEM_MOLECULAR_FORMULA>
C15H23N2+

> <PUBCHEM_MOLECULAR_WEIGHT>
231.35652

> <PUBCHEM_OPENEYE_CAN_SMILES>
CC[NH+]1CCN(CC1)CC=CC2=CC=CC=C2

> <PUBCHEM_OPENEYE_ISO_SMILES>
CC[NH+]1CCN(CC1)C/C=C/C2=CC=CC=C2

> <PUBCHEM_CACTVS_TPSA>
7.7

> <PUBCHEM_MONOISOTOPIC_WEIGHT>
231.186124

> <PUBCHEM_TOTAL_CHARGE>
1

> <PUBCHEM_HEAVY_ATOM_COUNT>
17

> <PUBCHEM_ATOM_DEF_STEREO_COUNT>
0

> <PUBCHEM_ATOM_UDEF_STEREO_COUNT>
0

> <PUBCHEM_BOND_DEF_STEREO_COUNT>
1

> <PUBCHEM_BOND_UDEF_STEREO_COUNT>
0

> <PUBCHEM_ISOTOPIC_ATOM_COUNT>
0

> <PUBCHEM_COMPONENT_COUNT>
1

> <PUBCHEM_CACTVS_TAUTO_COUNT>
1

> <PUBCHEM_COORDINATE_TYPE>
1
5
255

> <PUBCHEM_BONDANNOTATIONS>
12  13  8
12  14  8
13  15  8
14  16  8
15  17  8
16  17  8

$$$$
