52561495
  -OEChem-11301218032D

 49 51  0     0  0  0  0  0  0999 V2000
    5.5000   -2.8840    0.0000 N   0  3  0  0  0  0  0  0  0  0  0  0
    2.5000   -4.6160    0.0000 N   0  0  0  0  0  0  0  0  0  0  0  0
    5.5000   -0.8840    0.0000 C   0  0  0  0  0  0  0  0  0  0  0  0
    6.3660   -1.3840    0.0000 C   0  0  0  0  0  0  0  0  0  0  0  0
    4.6340   -1.3840    0.0000 C   0  0  0  0  0  0  0  0  0  0  0  0
    4.6340   -2.3840    0.0000 C   0  0  0  0  0  0  0  0  0  0  0  0
    6.3660   -2.3840    0.0000 C   0  0  0  0  0  0  0  0  0  0  0  0
    5.5000    0.1160    0.0000 C   0  0  0  0  0  0  0  0  0  0  0  0
    5.0000   -3.7500    0.0000 C   0  0  0  0  0  0  0  0  0  0  0  0
    6.3660    0.6160    0.0000 C   0  0  0  0  0  0  0  0  0  0  0  0
    4.0000   -3.7500    0.0000 C   0  0  0  0  0  0  0  0  0  0  0  0
    6.3660    1.6160    0.0000 C   0  0  0  0  0  0  0  0  0  0  0  0
    3.5000   -2.8840    0.0000 C   0  0  0  0  0  0  0  0  0  0  0  0
    3.5000   -4.6160    0.0000 C   0  0  0  0  0  0  0  0  0  0  0  0
    7.2320    2.1160    0.0000 C   0  0  0  0  0  0  0  0  0  0  0  0
    5.5000    2.1160    0.0000 C   0  0  0  0  0  0  0  0  0  0  0  0
    2.5000   -2.8840    0.0000 C   0  0  0  0  0  0  0  0  0  0  0  0
    7.2320    3.1160    0.0000 C   0  0  0  0  0  0  0  0  0  0  0  0
    5.5000    3.1160    0.0000 C   0  0  0  0  0  0  0  0  0  0  0  0
    6.3660    3.6160    0.0000 C   0  0  0  0  0  0  0  0  0  0  0  0
    2.0000   -3.7500    0.0000 C   0  0  0  0  0  0  0  0  0  0  0  0
    6.3660    4.6160    0.0000 C   0  0  0  0  0  0  0  0  0  0  0  0
    6.0369   -0.5740    0.0000 H   0  0  0  0  0  0  0  0  0  0  0  0
    5.8100   -3.4209    0.0000 H   0  0  0  0  0  0  0  0  0  0  0  0
    4.4219   -0.8014    0.0000 H   0  0  0  0  0  0  0  0  0  0  0  0
    4.0234   -1.4916    0.0000 H   0  0  0  0  0  0  0  0  0  0  0  0
    6.9766   -1.4916    0.0000 H   0  0  0  0  0  0  0  0  0  0  0  0
    6.5781   -0.8014    0.0000 H   0  0  0  0  0  0  0  0  0  0  0  0
    4.0234   -2.2763    0.0000 H   0  0  0  0  0  0  0  0  0  0  0  0
    4.4219   -2.9666    0.0000 H   0  0  0  0  0  0  0  0  0  0  0  0
    6.5781   -2.9666    0.0000 H   0  0  0  0  0  0  0  0  0  0  0  0
    6.9766   -2.2763    0.0000 H   0  0  0  0  0  0  0  0  0  0  0  0
    5.2880    0.6986    0.0000 H   0  0  0  0  0  0  0  0  0  0  0  0
    4.8894    0.0084    0.0000 H   0  0  0  0  0  0  0  0  0  0  0  0
    4.8923   -4.3606    0.0000 H   0  0  0  0  0  0  0  0  0  0  0  0
    5.5826   -3.9620    0.0000 H   0  0  0  0  0  0  0  0  0  0  0  0
    6.5781    0.0334    0.0000 H   0  0  0  0  0  0  0  0  0  0  0  0
    6.9766    0.7237    0.0000 H   0  0  0  0  0  0  0  0  0  0  0  0
    3.8100   -2.3470    0.0000 H   0  0  0  0  0  0  0  0  0  0  0  0
    3.8100   -5.1530    0.0000 H   0  0  0  0  0  0  0  0  0  0  0  0
    7.7690    1.8060    0.0000 H   0  0  0  0  0  0  0  0  0  0  0  0
    4.9631    1.8060    0.0000 H   0  0  0  0  0  0  0  0  0  0  0  0
    2.1900   -2.3470    0.0000 H   0  0  0  0  0  0  0  0  0  0  0  0
    7.7690    3.4260    0.0000 H   0  0  0  0  0  0  0  0  0  0  0  0
    4.9631    3.4260    0.0000 H   0  0  0  0  0  0  0  0  0  0  0  0
    1.3800   -3.7500    0.0000 H   0  0  0  0  0  0  0  0  0  0  0  0
    6.9860    4.6160    0.0000 H   0  0  0  0  0  0  0  0  0  0  0  0
    6.3660    5.2360    0.0000 H   0  0  0  0  0  0  0  0  0  0  0  0
    5.7460    4.6160    0.0000 H   0  0  0  0  0  0  0  0  0  0  0  0
  1  6  1  0  0  0  0
  1  7  1  0  0  0  0
  1  9  1  0  0  0  0
  1 24  1  0  0  0  0
  2 14  1  0  0  0  0
  2 21  2  0  0  0  0
  3  4  1  0  0  0  0
  3  5  1  0  0  0  0
  3  8  1  0  0  0  0
  3 23  1  0  0  0  0
  4  7  1  0  0  0  0
  4 27  1  0  0  0  0
  4 28  1  0  0  0  0
  5  6  1  0  0  0  0
  5 25  1  0  0  0  0
  5 26  1  0  0  0  0
  6 29  1  0  0  0  0
  6 30  1  0  0  0  0
  7 31  1  0  0  0  0
  7 32  1  0  0  0  0
  8 10  1  0  0  0  0
  8 33  1  0  0  0  0
  8 34  1  0  0  0  0
  9 11  1  0  0  0  0
  9 35  1  0  0  0  0
  9 36  1  0  0  0  0
 10 12  1  0  0  0  0
 10 37  1  0  0  0  0
 10 38  1  0  0  0  0
 11 13  1  0  0  0  0
 11 14  2  0  0  0  0
 12 15  2  0  0  0  0
 12 16  1  0  0  0  0
 13 17  2  0  0  0  0
 13 39  1  0  0  0  0
 14 40  1  0  0  0  0
 15 18  1  0  0  0  0
 15 41  1  0  0  0  0
 16 19  2  0  0  0  0
 16 42  1  0  0  0  0
 17 21  1  0  0  0  0
 17 43  1  0  0  0  0
 18 20  2  0  0  0  0
 18 44  1  0  0  0  0
 19 20  1  0  0  0  0
 19 45  1  0  0  0  0
 20 22  1  0  0  0  0
 21 46  1  0  0  0  0
 22 47  1  0  0  0  0
 22 48  1  0  0  0  0
 22 49  1  0  0  0  0
M  CHG  1   1   1
M  END
> <PUBCHEM_COMPOUND_CID>
52561495

> <PUBCHEM_COMPOUND_CANONICALIZED>
1

> <PUBCHEM_CACTVS_COMPLEXITY>
301

> <PUBCHEM_CACTVS_HBOND_ACCEPTOR>
1

> <PUBCHEM_CACTVS_HBOND_DONOR>
1

> <PUBCHEM_CACTVS_ROTATABLE_BOND>
5

> <PUBCHEM_CACTVS_SUBSKEYS>
AAADceB7AAAAAAAAAAAAAAAAAAAAAAAAAAA8WIAAAAAAAAABwAAAHAAQAAAADQDBGgQ+gJPIEACgAjBnRACCgCAxAiAI2KA4ZJgIIOLA0ZGEIAhgkADIyAcQgMAOQAAAAAAAAACAAAAAAAAAAAAAAAAAAA==

> <PUBCHEM_IUPAC_OPENEYE_NAME>
3-[[4-[2-(p-tolyl)ethyl]piperidin-1-ium-1-yl]methyl]pyridine

> <PUBCHEM_IUPAC_CAS_NAME>
3-[[4-[2-(4-methylphenyl)ethyl]-1-piperidin-1-iumyl]methyl]pyridine

> <PUBCHEM_IUPAC_NAME>
3-[[4-[2-(4-methylphenyl)ethyl]piperidin-1-ium-1-yl]methyl]pyridine

> <PUBCHEM_IUPAC_SYSTEMATIC_NAME>
3-[[4-[2-(4-methylphenyl)ethyl]piperidin-1-ium-1-yl]methyl]pyridine

> <PUBCHEM_IUPAC_TRADITIONAL_NAME>
3-[[4-[2-(p-tolyl)ethyl]piperidin-1-ium-1-yl]methyl]pyridine

> <PUBCHEM_IUPAC_INCHI>
InChI=1S/C20H26N2/c1-17-4-6-18(7-5-17)8-9-19-10-13-22(14-11-19)16-20-3-2-12-21-15-20/h2-7,12,15,19H,8-11,13-14,16H2,1H3/p+1

> <PUBCHEM_IUPAC_INCHIKEY>
BGKRKDTWCUSAGC-UHFFFAOYSA-O

> <PUBCHEM_XLOGP3>
4.2

> <PUBCHEM_EXACT_MASS>
295.217424

> <PUBCHEM_MOLECULAR_FORMULA>
C20H27N2+

> <PUBCHEM_MOLECULAR_WEIGHT>
295.44178

> <PUBCHEM_OPENEYE_CAN_SMILES>
CC1=CC=C(C=C1)CCC2CC[NH+](CC2)CC3=CN=CC=C3

> <PUBCHEM_OPENEYE_ISO_SMILES>
CC1=CC=C(C=C1)CCC2CC[NH+](CC2)CC3=CN=CC=C3

> <PUBCHEM_CACTVS_TPSA>
17.3

> <PUBCHEM_MONOISOTOPIC_WEIGHT>
295.217424

> <PUBCHEM_TOTAL_CHARGE>
1

> <PUBCHEM_HEAVY_ATOM_COUNT>
22

> <PUBCHEM_ATOM_DEF_STEREO_COUNT>
0

> <PUBCHEM_ATOM_UDEF_STEREO_COUNT>
0

> <PUBCHEM_BOND_DEF_STEREO_COUNT>
0

> <PUBCHEM_BOND_UDEF_STEREO_COUNT>
0

> <PUBCHEM_ISOTOPIC_ATOM_COUNT>
0

> <PUBCHEM_COMPONENT_COUNT>
1

> <PUBCHEM_CACTVS_TAUTO_COUNT>
1

> <PUBCHEM_COORDINATE_TYPE>
1
5
255

> <PUBCHEM_BONDANNOTATIONS>
11  13  8
11  14  8
12  15  8
12  16  8
13  17  8
15  18  8
16  19  8
17  21  8
18  20  8
19  20  8
2  14  8
2  21  8

$$$$
52565518
  -OEChem-11301218032D

 48 50  0     0  0  0  0  0  0999 V2000
    4.5981    3.0000    0.0000 S   0  0  0  0  0  0  0  0  0  0  0  0
    4.5981   -1.0000    0.0000 S   0  0  0  0  0  0  0  0  0  0  0  0
    4.5981   -6.0000    0.0000 F   0  0  0  0  0  0  0  0  0  0  0  0
    5.5981   -5.0000    0.0000 F   0  0  0  0  0  0  0  0  0  0  0  0
    3.5981   -5.0000    0.0000 F   0  0  0  0  0  0  0  0  0  0  0  0
    5.5981    3.0000    0.0000 O   0  0  0  0  0  0  0  0  0  0  0  0
    3.5981    3.0000    0.0000 O   0  0  0  0  0  0  0  0  0  0  0  0
    3.5981   -1.0000    0.0000 O   0  0  0  0  0  0  0  0  0  0  0  0
    5.5981   -1.0000    0.0000 O   0  0  0  0  0  0  0  0  0  0  0  0
    4.5981   -4.0000    0.0000 O   0  0  0  0  0  0  0  0  0  0  0  0
    4.5981    4.0000    0.0000 N   0  0  0  0  0  0  0  0  0  0  0  0
    4.5981   -2.0000    0.0000 N   0  5  0  0  0  0  0  0  0  0  0  0
    5.4641    4.5000    0.0000 C   0  0  0  0  0  0  0  0  0  0  0  0
    3.7320    4.5000    0.0000 C   0  0  0  0  0  0  0  0  0  0  0  0
    3.7320    5.5000    0.0000 C   0  0  0  0  0  0  0  0  0  0  0  0
    5.4641    5.5000    0.0000 C   0  0  0  0  0  0  0  0  0  0  0  0
    4.5981    6.0000    0.0000 C   0  0  0  0  0  0  0  0  0  0  0  0
    4.5981    2.0000    0.0000 C   0  0  0  0  0  0  0  0  0  0  0  0
    3.7320    1.5000    0.0000 C   0  0  0  0  0  0  0  0  0  0  0  0
    5.4641    1.5000    0.0000 C   0  0  0  0  0  0  0  0  0  0  0  0
    4.5981    0.0000    0.0000 C   0  0  0  0  0  0  0  0  0  0  0  0
    3.7320    0.5000    0.0000 C   0  0  0  0  0  0  0  0  0  0  0  0
    5.4641    0.5000    0.0000 C   0  0  0  0  0  0  0  0  0  0  0  0
    3.7320   -2.5000    0.0000 C   0  0  0  0  0  0  0  0  0  0  0  0
    3.7320   -3.5000    0.0000 C   0  0  0  0  0  0  0  0  0  0  0  0
    2.8660   -2.0000    0.0000 C   0  0  0  0  0  0  0  0  0  0  0  0
    2.8660   -4.0000    0.0000 C   0  0  0  0  0  0  0  0  0  0  0  0
    2.0000   -2.5000    0.0000 C   0  0  0  0  0  0  0  0  0  0  0  0
    2.0000   -3.5000    0.0000 C   0  0  0  0  0  0  0  0  0  0  0  0
    4.5981   -5.0000    0.0000 C   0  0  0  0  0  0  0  0  0  0  0  0
    3.1215    4.6077    0.0000 H   0  0  0  0  0  0  0  0  0  0  0  0
    3.5200    3.9174    0.0000 H   0  0  0  0  0  0  0  0  0  0  0  0
    5.6762    3.9174    0.0000 H   0  0  0  0  0  0  0  0  0  0  0  0
    6.0747    4.6077    0.0000 H   0  0  0  0  0  0  0  0  0  0  0  0
    6.0747    5.3923    0.0000 H   0  0  0  0  0  0  0  0  0  0  0  0
    5.6762    6.0826    0.0000 H   0  0  0  0  0  0  0  0  0  0  0  0
    3.5200    6.0826    0.0000 H   0  0  0  0  0  0  0  0  0  0  0  0
    3.1215    5.3923    0.0000 H   0  0  0  0  0  0  0  0  0  0  0  0
    4.9966    6.4750    0.0000 H   0  0  0  0  0  0  0  0  0  0  0  0
    4.1996    6.4750    0.0000 H   0  0  0  0  0  0  0  0  0  0  0  0
    3.1951    1.8100    0.0000 H   0  0  0  0  0  0  0  0  0  0  0  0
    6.0010    1.8100    0.0000 H   0  0  0  0  0  0  0  0  0  0  0  0
    3.1951    0.1900    0.0000 H   0  0  0  0  0  0  0  0  0  0  0  0
    6.0010    0.1900    0.0000 H   0  0  0  0  0  0  0  0  0  0  0  0
    2.8660   -1.3800    0.0000 H   0  0  0  0  0  0  0  0  0  0  0  0
    2.8660   -4.6200    0.0000 H   0  0  0  0  0  0  0  0  0  0  0  0
    1.4631   -2.1900    0.0000 H   0  0  0  0  0  0  0  0  0  0  0  0
    1.4631   -3.8100    0.0000 H   0  0  0  0  0  0  0  0  0  0  0  0
  1  6  2  0  0  0  0
  1  7  2  0  0  0  0
  1 11  1  0  0  0  0
  1 18  1  0  0  0  0
  2  8  2  0  0  0  0
  2  9  2  0  0  0  0
  2 12  1  0  0  0  0
  2 21  1  0  0  0  0
  3 30  1  0  0  0  0
  4 30  1  0  0  0  0
  5 30  1  0  0  0  0
 10 25  1  0  0  0  0
 10 30  1  0  0  0  0
 11 13  1  0  0  0  0
 11 14  1  0  0  0  0
 12 24  1  0  0  0  0
 13 16  1  0  0  0  0
 13 33  1  0  0  0  0
 13 34  1  0  0  0  0
 14 15  1  0  0  0  0
 14 31  1  0  0  0  0
 14 32  1  0  0  0  0
 15 17  1  0  0  0  0
 15 37  1  0  0  0  0
 15 38  1  0  0  0  0
 16 17  1  0  0  0  0
 16 35  1  0  0  0  0
 16 36  1  0  0  0  0
 17 39  1  0  0  0  0
 17 40  1  0  0  0  0
 18 19  2  0  0  0  0
 18 20  1  0  0  0  0
 19 22  1  0  0  0  0
 19 41  1  0  0  0  0
 20 23  2  0  0  0  0
 20 42  1  0  0  0  0
 21 22  2  0  0  0  0
 21 23  1  0  0  0  0
 22 43  1  0  0  0  0
 23 44  1  0  0  0  0
 24 25  1  0  0  0  0
 24 26  2  0  0  0  0
 25 27  2  0  0  0  0
 26 28  1  0  0  0  0
 26 45  1  0  0  0  0
 27 29  1  0  0  0  0
 27 46  1  0  0  0  0
 28 29  2  0  0  0  0
 28 47  1  0  0  0  0
 29 48  1  0  0  0  0
M  CHG  1  12  -1
M  END
> <PUBCHEM_COMPOUND_CID>
52565518

> <PUBCHEM_COMPOUND_CANONICALIZED>
1

> <PUBCHEM_CACTVS_COMPLEXITY>
763

> <PUBCHEM_CACTVS_HBOND_ACCEPTOR>
10

> <PUBCHEM_CACTVS_HBOND_DONOR>
0

> <PUBCHEM_CACTVS_ROTATABLE_BOND>
6

> <PUBCHEM_CACTVS_SUBSKEYS>
AAADceB7OYBgAAAAAAAAAAAAAAAAAAAAAAA8YIAAAAAAAAABQAAAHwQAQAAACAzB0BQwx4IABAKAACRCQHDCCBAgIgAIiBgPbIgOJiKEsZuFMCBkwBGI6AeQQAAAAAgAAAAAEAAAEAAAAAAgAAAAAAAAAA==

> <PUBCHEM_IUPAC_OPENEYE_NAME>
[4-(1-piperidylsulfonyl)phenyl]sulfonyl-[2-(trifluoromethoxy)phenyl]azanide

> <PUBCHEM_IUPAC_CAS_NAME>
[4-(1-piperidinylsulfonyl)phenyl]sulfonyl-[2-(trifluoromethoxy)phenyl]azanide

> <PUBCHEM_IUPAC_NAME>
(4-piperidin-1-ylsulfonylphenyl)sulfonyl-[2-(trifluoromethoxy)phenyl]azanide

> <PUBCHEM_IUPAC_SYSTEMATIC_NAME>
(4-piperidin-1-ylsulfonylphenyl)sulfonyl-[2-(trifluoromethyloxy)phenyl]azanide

> <PUBCHEM_IUPAC_TRADITIONAL_NAME>
(4-piperidinosulfonylphenyl)sulfonyl-[2-(trifluoromethoxy)phenyl]azanide

> <PUBCHEM_IUPAC_INCHI>
InChI=1S/C18H18F3N2O5S2/c19-18(20,21)28-17-7-3-2-6-16(17)22-29(24,25)14-8-10-15(11-9-14)30(26,27)23-12-4-1-5-13-23/h2-3,6-11H,1,4-5,12-13H2/q-1

> <PUBCHEM_IUPAC_INCHIKEY>
CYXIIUAGMMQQEE-UHFFFAOYSA-N

> <PUBCHEM_XLOGP3>
3.4

> <PUBCHEM_EXACT_MASS>
463.060923

> <PUBCHEM_MOLECULAR_FORMULA>
C18H18F3N2O5S2-

> <PUBCHEM_MOLECULAR_WEIGHT>
463.47113

> <PUBCHEM_OPENEYE_CAN_SMILES>
C1CCN(CC1)S(=O)(=O)C2=CC=C(C=C2)S(=O)(=O)[N-]C3=CC=CC=C3OC(F)(F)F

> <PUBCHEM_OPENEYE_ISO_SMILES>
C1CCN(CC1)S(=O)(=O)C2=CC=C(C=C2)S(=O)(=O)[N-]C3=CC=CC=C3OC(F)(F)F

> <PUBCHEM_CACTVS_TPSA>
98.5

> <PUBCHEM_MONOISOTOPIC_WEIGHT>
463.060923

> <PUBCHEM_TOTAL_CHARGE>
-1

> <PUBCHEM_HEAVY_ATOM_COUNT>
30

> <PUBCHEM_ATOM_DEF_STEREO_COUNT>
0

> <PUBCHEM_ATOM_UDEF_STEREO_COUNT>
0

> <PUBCHEM_BOND_DEF_STEREO_COUNT>
0

> <PUBCHEM_BOND_UDEF_STEREO_COUNT>
0

> <PUBCHEM_ISOTOPIC_ATOM_COUNT>
0

> <PUBCHEM_COMPONENT_COUNT>
1

> <PUBCHEM_CACTVS_TAUTO_COUNT>
1

> <PUBCHEM_COORDINATE_TYPE>
1
5
255

> <PUBCHEM_BONDANNOTATIONS>
18  19  8
18  20  8
19  22  8
20  23  8
21  22  8
21  23  8
24  25  8
24  26  8
25  27  8
26  28  8
27  29  8
28  29  8

$$$$
52565519
  -OEChem-11301218032D

 49 51  0     0  0  0  0  0  0999 V2000
    3.0000   -3.0000    0.0000 S   0  0  0  0  0  0  0  0  0  0  0  0
    3.0000    1.0000    0.0000 S   0  0  0  0  0  0  0  0  0  0  0  0
    3.0000    6.0000    0.0000 F   0  0  0  0  0  0  0  0  0  0  0  0
    2.0000    5.0000    0.0000 F   0  0  0  0  0  0  0  0  0  0  0  0
    4.0000    5.0000    0.0000 F   0  0  0  0  0  0  0  0  0  0  0  0
    2.0000   -3.0000    0.0000 O   0  0  0  0  0  0  0  0  0  0  0  0
    4.0000   -3.0000    0.0000 O   0  0  0  0  0  0  0  0  0  0  0  0
    4.0000    1.0000    0.0000 O   0  0  0  0  0  0  0  0  0  0  0  0
    2.0000    1.0000    0.0000 O   0  0  0  0  0  0  0  0  0  0  0  0
    3.0000    4.0000    0.0000 O   0  0  0  0  0  0  0  0  0  0  0  0
    3.0000   -4.0000    0.0000 N   0  0  0  0  0  0  0  0  0  0  0  0
    3.0000    2.0000    0.0000 N   0  0  0  0  0  0  0  0  0  0  0  0
    2.1340   -4.5000    0.0000 C   0  0  0  0  0  0  0  0  0  0  0  0
    3.8660   -4.5000    0.0000 C   0  0  0  0  0  0  0  0  0  0  0  0
    2.1340   -5.5000    0.0000 C   0  0  0  0  0  0  0  0  0  0  0  0
    3.8660   -5.5000    0.0000 C   0  0  0  0  0  0  0  0  0  0  0  0
    3.0000   -6.0000    0.0000 C   0  0  0  0  0  0  0  0  0  0  0  0
    3.0000   -2.0000    0.0000 C   0  0  0  0  0  0  0  0  0  0  0  0
    2.1340   -1.5000    0.0000 C   0  0  0  0  0  0  0  0  0  0  0  0
    3.8660   -1.5000    0.0000 C   0  0  0  0  0  0  0  0  0  0  0  0
    3.0000    0.0000    0.0000 C   0  0  0  0  0  0  0  0  0  0  0  0
    2.1340   -0.5000    0.0000 C   0  0  0  0  0  0  0  0  0  0  0  0
    3.8660   -0.5000    0.0000 C   0  0  0  0  0  0  0  0  0  0  0  0
    3.8660    2.5000    0.0000 C   0  0  0  0  0  0  0  0  0  0  0  0
    3.8660    3.5000    0.0000 C   0  0  0  0  0  0  0  0  0  0  0  0
    4.7320    2.0000    0.0000 C   0  0  0  0  0  0  0  0  0  0  0  0
    4.7320    4.0000    0.0000 C   0  0  0  0  0  0  0  0  0  0  0  0
    5.5981    2.5000    0.0000 C   0  0  0  0  0  0  0  0  0  0  0  0
    5.5981    3.5000    0.0000 C   0  0  0  0  0  0  0  0  0  0  0  0
    3.0000    5.0000    0.0000 C   0  0  0  0  0  0  0  0  0  0  0  0
    4.4766   -4.6077    0.0000 H   0  0  0  0  0  0  0  0  0  0  0  0
    1.9219   -3.9174    0.0000 H   0  0  0  0  0  0  0  0  0  0  0  0
    1.5234   -4.6077    0.0000 H   0  0  0  0  0  0  0  0  0  0  0  0
    4.0781   -3.9174    0.0000 H   0  0  0  0  0  0  0  0  0  0  0  0
    1.5234   -5.3923    0.0000 H   0  0  0  0  0  0  0  0  0  0  0  0
    1.9219   -6.0826    0.0000 H   0  0  0  0  0  0  0  0  0  0  0  0
    4.0781   -6.0826    0.0000 H   0  0  0  0  0  0  0  0  0  0  0  0
    4.4766   -5.3923    0.0000 H   0  0  0  0  0  0  0  0  0  0  0  0
    2.6015   -6.4750    0.0000 H   0  0  0  0  0  0  0  0  0  0  0  0
    3.3985   -6.4750    0.0000 H   0  0  0  0  0  0  0  0  0  0  0  0
    1.5970   -1.8100    0.0000 H   0  0  0  0  0  0  0  0  0  0  0  0
    4.4030   -1.8100    0.0000 H   0  0  0  0  0  0  0  0  0  0  0  0
    1.5970   -0.1900    0.0000 H   0  0  0  0  0  0  0  0  0  0  0  0
    4.4030   -0.1900    0.0000 H   0  0  0  0  0  0  0  0  0  0  0  0
    2.4631    2.3100    0.0000 H   0  0  0  0  0  0  0  0  0  0  0  0
    4.7320    1.3800    0.0000 H   0  0  0  0  0  0  0  0  0  0  0  0
    4.7320    4.6200    0.0000 H   0  0  0  0  0  0  0  0  0  0  0  0
    6.1350    2.1900    0.0000 H   0  0  0  0  0  0  0  0  0  0  0  0
    6.1350    3.8100    0.0000 H   0  0  0  0  0  0  0  0  0  0  0  0
  1  6  2  0  0  0  0
  1  7  2  0  0  0  0
  1 11  1  0  0  0  0
  1 18  1  0  0  0  0
  2  8  2  0  0  0  0
  2  9  2  0  0  0  0
  2 12  1  0  0  0  0
  2 21  1  0  0  0  0
  3 30  1  0  0  0  0
  4 30  1  0  0  0  0
  5 30  1  0  0  0  0
 10 25  1  0  0  0  0
 10 30  1  0  0  0  0
 11 13  1  0  0  0  0
 11 14  1  0  0  0  0
 12 24  1  0  0  0  0
 12 45  1  0  0  0  0
 13 15  1  0  0  0  0
 13 32  1  0  0  0  0
 13 33  1  0  0  0  0
 14 16  1  0  0  0  0
 14 31  1  0  0  0  0
 14 34  1  0  0  0  0
 15 17  1  0  0  0  0
 15 35  1  0  0  0  0
 15 36  1  0  0  0  0
 16 17  1  0  0  0  0
 16 37  1  0  0  0  0
 16 38  1  0  0  0  0
 17 39  1  0  0  0  0
 17 40  1  0  0  0  0
 18 19  2  0  0  0  0
 18 20  1  0  0  0  0
 19 22  1  0  0  0  0
 19 41  1  0  0  0  0
 20 23  2  0  0  0  0
 20 42  1  0  0  0  0
 21 22  2  0  0  0  0
 21 23  1  0  0  0  0
 22 43  1  0  0  0  0
 23 44  1  0  0  0  0
 24 25  1  0  0  0  0
 24 26  2  0  0  0  0
 25 27  2  0  0  0  0
 26 28  1  0  0  0  0
 26 46  1  0  0  0  0
 27 29  1  0  0  0  0
 27 47  1  0  0  0  0
 28 29  2  0  0  0  0
 28 48  1  0  0  0  0
 29 49  1  0  0  0  0
M  END
> <PUBCHEM_COMPOUND_CID>
52565519

> <PUBCHEM_COMPOUND_CANONICALIZED>
1

> <PUBCHEM_CACTVS_COMPLEXITY>
763

> <PUBCHEM_CACTVS_HBOND_ACCEPTOR>
10

> <PUBCHEM_CACTVS_HBOND_DONOR>
1

> <PUBCHEM_CACTVS_ROTATABLE_BOND>
6

> <PUBCHEM_CACTVS_SUBSKEYS>
AAADceB7OYBgAAAAAAAAAAAAAAAAAAAAAAA8YIAAAAAAAAABQAAAHwQQQAAACAzB0BQwx4JABAKAACRCQHDCCBAgIgAIiBgPbIgOJiKEsZuFMCBk0BGI6AeQQAAAAAgAAAAAEAAAEAAAAAAgAAAAAAAAAA==

> <PUBCHEM_IUPAC_OPENEYE_NAME>
4-(1-piperidylsulfonyl)-N-[2-(trifluoromethoxy)phenyl]benzenesulfonamide

> <PUBCHEM_IUPAC_CAS_NAME>
4-(1-piperidinylsulfonyl)-N-[2-(trifluoromethoxy)phenyl]benzenesulfonamide

> <PUBCHEM_IUPAC_NAME>
4-piperidin-1-ylsulfonyl-N-[2-(trifluoromethoxy)phenyl]benzenesulfonamide

> <PUBCHEM_IUPAC_SYSTEMATIC_NAME>
4-piperidin-1-ylsulfonyl-N-[2-(trifluoromethyloxy)phenyl]benzenesulfonamide

> <PUBCHEM_IUPAC_TRADITIONAL_NAME>
4-piperidinosulfonyl-N-[2-(trifluoromethoxy)phenyl]benzenesulfonamide

> <PUBCHEM_IUPAC_INCHI>
InChI=1S/C18H19F3N2O5S2/c19-18(20,21)28-17-7-3-2-6-16(17)22-29(24,25)14-8-10-15(11-9-14)30(26,27)23-12-4-1-5-13-23/h2-3,6-11,22H,1,4-5,12-13H2

> <PUBCHEM_IUPAC_INCHIKEY>
KAYPMAVNRTYKCF-UHFFFAOYSA-N

> <PUBCHEM_XLOGP3>
3.4

> <PUBCHEM_EXACT_MASS>
464.068748

> <PUBCHEM_MOLECULAR_FORMULA>
C18H19F3N2O5S2

> <PUBCHEM_MOLECULAR_WEIGHT>
464.47907

> <PUBCHEM_OPENEYE_CAN_SMILES>
C1CCN(CC1)S(=O)(=O)C2=CC=C(C=C2)S(=O)(=O)NC3=CC=CC=C3OC(F)(F)F

> <PUBCHEM_OPENEYE_ISO_SMILES>
C1CCN(CC1)S(=O)(=O)C2=CC=C(C=C2)S(=O)(=O)NC3=CC=CC=C3OC(F)(F)F

> <PUBCHEM_CACTVS_TPSA>
110

> <PUBCHEM_MONOISOTOPIC_WEIGHT>
464.068748

> <PUBCHEM_TOTAL_CHARGE>
0

> <PUBCHEM_HEAVY_ATOM_COUNT>
30

> <PUBCHEM_ATOM_DEF_STEREO_COUNT>
0

> <PUBCHEM_ATOM_UDEF_STEREO_COUNT>
0

> <PUBCHEM_BOND_DEF_STEREO_COUNT>
0

> <PUBCHEM_BOND_UDEF_STEREO_COUNT>
0

> <PUBCHEM_ISOTOPIC_ATOM_COUNT>
0

> <PUBCHEM_COMPONENT_COUNT>
1

> <PUBCHEM_CACTVS_TAUTO_COUNT>
1

> <PUBCHEM_COORDINATE_TYPE>
1
5
255

> <PUBCHEM_BONDANNOTATIONS>
18  19  8
18  20  8
19  22  8
20  23  8
21  22  8
21  23  8
24  25  8
24  26  8
25  27  8
26  28  8
27  29  8
28  29  8

$$$$
52568350
  -OEChem-11301218032D

 36 38  0     0  0  0  0  0  0999 V2000
    2.0000   -0.6830    0.0000 Cl  0  0  0  0  0  0  0  0  0  0  0  0
    5.4641   -2.6830    0.0000 Cl  0  0  0  0  0  0  0  0  0  0  0  0
    2.8660    0.8170    0.0000 O   0  0  0  0  0  0  0  0  0  0  0  0
    4.5981    0.8170    0.0000 N   0  0  0  0  0  0  0  0  0  0  0  0
    4.5981    1.8170    0.0000 C   0  0  0  0  0  0  0  0  0  0  0  0
    5.0981    2.6830    0.0000 C   0  0  0  0  0  0  0  0  0  0  0  0
    4.0981    2.6830    0.0000 C   0  0  0  0  0  0  0  0  0  0  0  0
    5.4641    0.3170    0.0000 C   0  0  0  0  0  0  0  0  0  0  0  0
    5.5686   -0.6775    0.0000 C   0  0  0  0  0  0  0  0  0  0  0  0
    6.3776    0.7237    0.0000 C   0  0  0  0  0  0  0  0  0  0  0  0
    6.5468   -0.8854    0.0000 C   0  0  0  0  0  0  0  0  0  0  0  0
    7.0468   -0.0194    0.0000 C   0  0  0  0  0  0  0  0  0  0  0  0
    3.7320    0.3170    0.0000 C   0  0  0  0  0  0  0  0  0  0  0  0
    3.7320   -0.6830    0.0000 C   0  0  0  0  0  0  0  0  0  0  0  0
    2.8660   -1.1830    0.0000 C   0  0  0  0  0  0  0  0  0  0  0  0
    4.5981   -1.1830    0.0000 C   0  0  0  0  0  0  0  0  0  0  0  0
    4.5981   -2.1830    0.0000 C   0  0  0  0  0  0  0  0  0  0  0  0
    2.8660   -2.1830    0.0000 C   0  0  0  0  0  0  0  0  0  0  0  0
    3.7320   -2.6830    0.0000 C   0  0  0  0  0  0  0  0  0  0  0  0
    5.1970    1.6565    0.0000 H   0  0  0  0  0  0  0  0  0  0  0  0
    5.6807    2.4710    0.0000 H   0  0  0  0  0  0  0  0  0  0  0  0
    5.2057    3.2936    0.0000 H   0  0  0  0  0  0  0  0  0  0  0  0
    3.9904    3.2936    0.0000 H   0  0  0  0  0  0  0  0  0  0  0  0
    3.5155    2.4710    0.0000 H   0  0  0  0  0  0  0  0  0  0  0  0
    4.9441   -0.0207    0.0000 H   0  0  0  0  0  0  0  0  0  0  0  0
    4.9486   -0.6775    0.0000 H   0  0  0  0  0  0  0  0  0  0  0  0
    5.5038   -1.2941    0.0000 H   0  0  0  0  0  0  0  0  0  0  0  0
    6.8792    1.0882    0.0000 H   0  0  0  0  0  0  0  0  0  0  0  0
    6.0677    1.2607    0.0000 H   0  0  0  0  0  0  0  0  0  0  0  0
    6.3552   -1.4751    0.0000 H   0  0  0  0  0  0  0  0  0  0  0  0
    7.1132   -1.1376    0.0000 H   0  0  0  0  0  0  0  0  0  0  0  0
    7.5484   -0.3838    0.0000 H   0  0  0  0  0  0  0  0  0  0  0  0
    7.4616    0.4413    0.0000 H   0  0  0  0  0  0  0  0  0  0  0  0
    5.1350   -0.8730    0.0000 H   0  0  0  0  0  0  0  0  0  0  0  0
    2.3291   -2.4930    0.0000 H   0  0  0  0  0  0  0  0  0  0  0  0
    3.7320   -3.3030    0.0000 H   0  0  0  0  0  0  0  0  0  0  0  0
  1 15  1  0  0  0  0
  2 17  1  0  0  0  0
  3 13  2  0  0  0  0
  4  5  1  0  0  0  0
  4  8  1  0  0  0  0
  4 13  1  0  0  0  0
  5  6  1  0  0  0  0
  5  7  1  0  0  0  0
  5 20  1  0  0  0  0
  6  7  1  0  0  0  0
  6 21  1  0  0  0  0
  6 22  1  0  0  0  0
  7 23  1  0  0  0  0
  7 24  1  0  0  0  0
  8  9  1  0  0  0  0
  8 10  1  0  0  0  0
  8 25  1  0  0  0  0
  9 11  1  0  0  0  0
  9 26  1  0  0  0  0
  9 27  1  0  0  0  0
 10 12  1  0  0  0  0
 10 28  1  0  0  0  0
 10 29  1  0  0  0  0
 11 12  1  0  0  0  0
 11 30  1  0  0  0  0
 11 31  1  0  0  0  0
 12 32  1  0  0  0  0
 12 33  1  0  0  0  0
 13 14  1  0  0  0  0
 14 15  2  0  0  0  0
 14 16  1  0  0  0  0
 15 18  1  0  0  0  0
 16 17  2  0  0  0  0
 16 34  1  0  0  0  0
 17 19  1  0  0  0  0
 18 19  2  0  0  0  0
 18 35  1  0  0  0  0
 19 36  1  0  0  0  0
M  END
> <PUBCHEM_COMPOUND_CID>
52568350

> <PUBCHEM_COMPOUND_CANONICALIZED>
1

> <PUBCHEM_CACTVS_COMPLEXITY>
339

> <PUBCHEM_CACTVS_HBOND_ACCEPTOR>
1

> <PUBCHEM_CACTVS_HBOND_DONOR>
0

> <PUBCHEM_CACTVS_ROTATABLE_BOND>
3

> <PUBCHEM_CACTVS_SUBSKEYS>
AAADceByIAAGAAAAAAAAAAAAGAAAAYAAAAAwAAAAAAAAAAABAAAAHgIAAAAADCrBmCQwAIMAAACIAiFSEACCAAAkBQAIiAEIBsgIIDKBlxGEIQhghgCIjYcYiACOAAAQIAABAAAAACBAAAIAAAAAAAAAAA==

> <PUBCHEM_IUPAC_OPENEYE_NAME>
2,5-dichloro-N-cyclopentyl-N-cyclopropyl-benzamide

> <PUBCHEM_IUPAC_CAS_NAME>
2,5-dichloro-N-cyclopentyl-N-cyclopropylbenzamide

> <PUBCHEM_IUPAC_NAME>
2,5-dichloro-N-cyclopentyl-N-cyclopropylbenzamide

> <PUBCHEM_IUPAC_SYSTEMATIC_NAME>
2,5-bis(chloranyl)-N-cyclopentyl-N-cyclopropyl-benzamide

> <PUBCHEM_IUPAC_TRADITIONAL_NAME>
2,5-dichloro-N-cyclopentyl-N-cyclopropyl-benzamide

> <PUBCHEM_IUPAC_INCHI>
InChI=1S/C15H17Cl2NO/c16-10-5-8-14(17)13(9-10)15(19)18(12-6-7-12)11-3-1-2-4-11/h5,8-9,11-12H,1-4,6-7H2

> <PUBCHEM_IUPAC_INCHIKEY>
RRZMTXDKVLJBGK-UHFFFAOYSA-N

> <PUBCHEM_XLOGP3>
4.6

> <PUBCHEM_EXACT_MASS>
297.06872

> <PUBCHEM_MOLECULAR_FORMULA>
C15H17Cl2NO

> <PUBCHEM_MOLECULAR_WEIGHT>
298.20758

> <PUBCHEM_OPENEYE_CAN_SMILES>
C1CCC(C1)N(C2CC2)C(=O)C3=C(C=CC(=C3)Cl)Cl

> <PUBCHEM_OPENEYE_ISO_SMILES>
C1CCC(C1)N(C2CC2)C(=O)C3=C(C=CC(=C3)Cl)Cl

> <PUBCHEM_CACTVS_TPSA>
20.3

> <PUBCHEM_MONOISOTOPIC_WEIGHT>
297.06872

> <PUBCHEM_TOTAL_CHARGE>
0

> <PUBCHEM_HEAVY_ATOM_COUNT>
19

> <PUBCHEM_ATOM_DEF_STEREO_COUNT>
0

> <PUBCHEM_ATOM_UDEF_STEREO_COUNT>
0

> <PUBCHEM_BOND_DEF_STEREO_COUNT>
0

> <PUBCHEM_BOND_UDEF_STEREO_COUNT>
0

> <PUBCHEM_ISOTOPIC_ATOM_COUNT>
0

> <PUBCHEM_COMPONENT_COUNT>
1

> <PUBCHEM_CACTVS_TAUTO_COUNT>
1

> <PUBCHEM_COORDINATE_TYPE>
1
5
255

> <PUBCHEM_BONDANNOTATIONS>
14  15  8
14  16  8
15  18  8
16  17  8
17  19  8
18  19  8

$$$$
52568386
  -OEChem-11301218032D

 34 34  0     0  0  0  0  0  0999 V2000
    2.0000   -1.0000    0.0000 Cl  0  0  0  0  0  0  0  0  0  0  0  0
    5.4641   -3.0000    0.0000 Cl  0  0  0  0  0  0  0  0  0  0  0  0
    2.8660    0.5000    0.0000 O   0  0  0  0  0  0  0  0  0  0  0  0
    4.5981    0.5000    0.0000 N   0  0  0  0  0  0  0  0  0  0  0  0
    4.5981    1.5000    0.0000 C   0  0  0  0  0  0  0  0  0  0  0  0
    5.4641    2.0000    0.0000 C   0  0  0  0  0  0  0  0  0  0  0  0
    3.7320    2.0000    0.0000 C   0  0  0  0  0  0  0  0  0  0  0  0
    5.4641    3.0000    0.0000 C   0  0  0  0  0  0  0  0  0  0  0  0
    3.7320    3.0000    0.0000 C   0  0  0  0  0  0  0  0  0  0  0  0
    3.7320    0.0000    0.0000 C   0  0  0  0  0  0  0  0  0  0  0  0
    5.4641    0.0000    0.0000 C   0  0  0  0  0  0  0  0  0  0  0  0
    3.7320   -1.0000    0.0000 C   0  0  0  0  0  0  0  0  0  0  0  0
    2.8660   -1.5000    0.0000 C   0  0  0  0  0  0  0  0  0  0  0  0
    4.5981   -1.5000    0.0000 C   0  0  0  0  0  0  0  0  0  0  0  0
    4.5981   -2.5000    0.0000 C   0  0  0  0  0  0  0  0  0  0  0  0
    2.8660   -2.5000    0.0000 C   0  0  0  0  0  0  0  0  0  0  0  0
    3.7320   -3.0000    0.0000 C   0  0  0  0  0  0  0  0  0  0  0  0
    5.1350    1.1900    0.0000 H   0  0  0  0  0  0  0  0  0  0  0  0
    5.6762    1.4174    0.0000 H   0  0  0  0  0  0  0  0  0  0  0  0
    6.0747    2.1077    0.0000 H   0  0  0  0  0  0  0  0  0  0  0  0
    3.1215    2.1077    0.0000 H   0  0  0  0  0  0  0  0  0  0  0  0
    3.5200    1.4174    0.0000 H   0  0  0  0  0  0  0  0  0  0  0  0
    6.0841    3.0000    0.0000 H   0  0  0  0  0  0  0  0  0  0  0  0
    5.4641    3.6200    0.0000 H   0  0  0  0  0  0  0  0  0  0  0  0
    4.3520    3.0000    0.0000 H   0  0  0  0  0  0  0  0  0  0  0  0
    3.7320    3.6200    0.0000 H   0  0  0  0  0  0  0  0  0  0  0  0
    3.1120    3.0000    0.0000 H   0  0  0  0  0  0  0  0  0  0  0  0
    4.8441    3.0000    0.0000 H   0  0  0  0  0  0  0  0  0  0  0  0
    5.1541   -0.5369    0.0000 H   0  0  0  0  0  0  0  0  0  0  0  0
    6.0010   -0.3100    0.0000 H   0  0  0  0  0  0  0  0  0  0  0  0
    5.7741    0.5369    0.0000 H   0  0  0  0  0  0  0  0  0  0  0  0
    5.1350   -1.1900    0.0000 H   0  0  0  0  0  0  0  0  0  0  0  0
    2.3291   -2.8100    0.0000 H   0  0  0  0  0  0  0  0  0  0  0  0
    3.7320   -3.6200    0.0000 H   0  0  0  0  0  0  0  0  0  0  0  0
  1 13  1  0  0  0  0
  2 15  1  0  0  0  0
  3 10  2  0  0  0  0
  4  5  1  0  0  0  0
  4 10  1  0  0  0  0
  4 11  1  0  0  0  0
  5  6  1  0  0  0  0
  5  7  1  0  0  0  0
  5 18  1  0  0  0  0
  6  8  1  0  0  0  0
  6 19  1  0  0  0  0
  6 20  1  0  0  0  0
  7  9  1  0  0  0  0
  7 21  1  0  0  0  0
  7 22  1  0  0  0  0
  8 23  1  0  0  0  0
  8 24  1  0  0  0  0
  8 28  1  0  0  0  0
  9 25  1  0  0  0  0
  9 26  1  0  0  0  0
  9 27  1  0  0  0  0
 10 12  1  0  0  0  0
 11 29  1  0  0  0  0
 11 30  1  0  0  0  0
 11 31  1  0  0  0  0
 12 13  2  0  0  0  0
 12 14  1  0  0  0  0
 13 16  1  0  0  0  0
 14 15  2  0  0  0  0
 14 32  1  0  0  0  0
 15 17  1  0  0  0  0
 16 17  2  0  0  0  0
 16 33  1  0  0  0  0
 17 34  1  0  0  0  0
M  END
> <PUBCHEM_COMPOUND_CID>
52568386

> <PUBCHEM_COMPOUND_CANONICALIZED>
1

> <PUBCHEM_CACTVS_COMPLEXITY>
256

> <PUBCHEM_CACTVS_HBOND_ACCEPTOR>
1

> <PUBCHEM_CACTVS_HBOND_DONOR>
0

> <PUBCHEM_CACTVS_ROTATABLE_BOND>
4

> <PUBCHEM_CACTVS_SUBSKEYS>
AAADceByIAAGAAAAAAAAAAAAAAAAAAAAAAAwAAAAAAAAAAABAAAAHgIAAAAADCrBmCQyAIMAAACIAiFSEACCAAAkBQAIiAEIBsgIIDKBlxGEIQhghgCIjYcYiACOAAAQIAABAAAAACBAAAIAAAAAAAAAAA==

> <PUBCHEM_IUPAC_OPENEYE_NAME>
2,5-dichloro-N-(1-ethylpropyl)-N-methyl-benzamide

> <PUBCHEM_IUPAC_CAS_NAME>
2,5-dichloro-N-methyl-N-pentan-3-ylbenzamide

> <PUBCHEM_IUPAC_NAME>
2,5-dichloro-N-methyl-N-pentan-3-ylbenzamide

> <PUBCHEM_IUPAC_SYSTEMATIC_NAME>
2,5-bis(chloranyl)-N-methyl-N-pentan-3-yl-benzamide

> <PUBCHEM_IUPAC_TRADITIONAL_NAME>
2,5-dichloro-N-(1-ethylpropyl)-N-methyl-benzamide

> <PUBCHEM_IUPAC_INCHI>
InChI=1S/C13H17Cl2NO/c1-4-10(5-2)16(3)13(17)11-8-9(14)6-7-12(11)15/h6-8,10H,4-5H2,1-3H3

> <PUBCHEM_IUPAC_INCHIKEY>
CPYKNPMRFYJVDU-UHFFFAOYSA-N

> <PUBCHEM_XLOGP3>
4.6

> <PUBCHEM_EXACT_MASS>
273.06872

> <PUBCHEM_MOLECULAR_FORMULA>
C13H17Cl2NO

> <PUBCHEM_MOLECULAR_WEIGHT>
274.18618

> <PUBCHEM_OPENEYE_CAN_SMILES>
CCC(CC)N(C)C(=O)C1=C(C=CC(=C1)Cl)Cl

> <PUBCHEM_OPENEYE_ISO_SMILES>
CCC(CC)N(C)C(=O)C1=C(C=CC(=C1)Cl)Cl

> <PUBCHEM_CACTVS_TPSA>
20.3

> <PUBCHEM_MONOISOTOPIC_WEIGHT>
273.06872

> <PUBCHEM_TOTAL_CHARGE>
0

> <PUBCHEM_HEAVY_ATOM_COUNT>
17

> <PUBCHEM_ATOM_DEF_STEREO_COUNT>
0

> <PUBCHEM_ATOM_UDEF_STEREO_COUNT>
0

> <PUBCHEM_BOND_DEF_STEREO_COUNT>
0

> <PUBCHEM_BOND_UDEF_STEREO_COUNT>
0

> <PUBCHEM_ISOTOPIC_ATOM_COUNT>
0

> <PUBCHEM_COMPONENT_COUNT>
1

> <PUBCHEM_CACTVS_TAUTO_COUNT>
1

> <PUBCHEM_COORDINATE_TYPE>
1
5
255

> <PUBCHEM_BONDANNOTATIONS>
12  13  8
12  14  8
13  16  8
14  15  8
15  17  8
16  17  8

$$$$
