64568458
  -OEChem-11301218252D

 35 35  0     1  0  0  0  0  0999 V2000
    2.0000   -0.7500    0.0000 Cl  0  0  0  0  0  0  0  0  0  0  0  0
    3.7320   -3.7500    0.0000 Cl  0  0  0  0  0  0  0  0  0  0  0  0
    4.5981    0.7500    0.0000 N   0  0  0  0  0  0  0  0  0  0  0  0
    5.4641    2.2500    0.0000 C   0  0  3  0  0  0  0  0  0  0  0  0
    5.4641    3.2500    0.0000 C   0  0  0  0  0  0  0  0  0  0  0  0
    4.5981    1.7500    0.0000 C   0  0  0  0  0  0  0  0  0  0  0  0
    6.3301    1.7500    0.0000 C   0  0  0  0  0  0  0  0  0  0  0  0
    6.3301    3.7500    0.0000 C   0  0  0  0  0  0  0  0  0  0  0  0
    4.5981    3.7500    0.0000 C   0  0  0  0  0  0  0  0  0  0  0  0
    3.7320    0.2500    0.0000 C   0  0  0  0  0  0  0  0  0  0  0  0
    3.7320   -0.7500    0.0000 C   0  0  0  0  0  0  0  0  0  0  0  0
    2.8660   -1.2500    0.0000 C   0  0  0  0  0  0  0  0  0  0  0  0
    4.5981   -1.2500    0.0000 C   0  0  0  0  0  0  0  0  0  0  0  0
    2.8660   -2.2500    0.0000 C   0  0  0  0  0  0  0  0  0  0  0  0
    4.5981   -2.2500    0.0000 C   0  0  0  0  0  0  0  0  0  0  0  0
    3.7320   -2.7500    0.0000 C   0  0  0  0  0  0  0  0  0  0  0  0
    5.4641    1.6300    0.0000 H   0  0  0  0  0  0  0  0  0  0  0  0
    5.4641    3.8700    0.0000 H   0  0  0  0  0  0  0  0  0  0  0  0
    4.3860    2.3326    0.0000 H   0  0  0  0  0  0  0  0  0  0  0  0
    3.9875    1.6423    0.0000 H   0  0  0  0  0  0  0  0  0  0  0  0
    6.0201    1.2131    0.0000 H   0  0  0  0  0  0  0  0  0  0  0  0
    6.8671    1.4400    0.0000 H   0  0  0  0  0  0  0  0  0  0  0  0
    6.6401    2.2869    0.0000 H   0  0  0  0  0  0  0  0  0  0  0  0
    6.6401    3.2131    0.0000 H   0  0  0  0  0  0  0  0  0  0  0  0
    4.9081    4.2869    0.0000 H   0  0  0  0  0  0  0  0  0  0  0  0
    4.0611    4.0600    0.0000 H   0  0  0  0  0  0  0  0  0  0  0  0
    4.2881    3.2131    0.0000 H   0  0  0  0  0  0  0  0  0  0  0  0
    6.8671    4.0600    0.0000 H   0  0  0  0  0  0  0  0  0  0  0  0
    6.0201    4.2869    0.0000 H   0  0  0  0  0  0  0  0  0  0  0  0
    5.1350    0.4400    0.0000 H   0  0  0  0  0  0  0  0  0  0  0  0
    3.5200    0.8326    0.0000 H   0  0  0  0  0  0  0  0  0  0  0  0
    3.1215    0.1423    0.0000 H   0  0  0  0  0  0  0  0  0  0  0  0
    5.1350   -0.9400    0.0000 H   0  0  0  0  0  0  0  0  0  0  0  0
    2.3291   -2.5600    0.0000 H   0  0  0  0  0  0  0  0  0  0  0  0
    5.1350   -2.5600    0.0000 H   0  0  0  0  0  0  0  0  0  0  0  0
  1 12  1  0  0  0  0
  2 16  1  0  0  0  0
  3  6  1  0  0  0  0
  3 10  1  0  0  0  0
  3 30  1  0  0  0  0
  4  5  1  0  0  0  0
  4  6  1  0  0  0  0
  4  7  1  0  0  0  0
  4 17  1  0  0  0  0
  5  8  1  0  0  0  0
  5  9  1  0  0  0  0
  5 18  1  0  0  0  0
  6 19  1  0  0  0  0
  6 20  1  0  0  0  0
  7 21  1  0  0  0  0
  7 22  1  0  0  0  0
  7 23  1  0  0  0  0
  8 24  1  0  0  0  0
  8 28  1  0  0  0  0
  8 29  1  0  0  0  0
  9 25  1  0  0  0  0
  9 26  1  0  0  0  0
  9 27  1  0  0  0  0
 10 11  1  0  0  0  0
 10 31  1  0  0  0  0
 10 32  1  0  0  0  0
 11 12  2  0  0  0  0
 11 13  1  0  0  0  0
 12 14  1  0  0  0  0
 13 15  2  0  0  0  0
 13 33  1  0  0  0  0
 14 16  2  0  0  0  0
 14 34  1  0  0  0  0
 15 16  1  0  0  0  0
 15 35  1  0  0  0  0
M  END
> <PUBCHEM_COMPOUND_CID>
64568458

> <PUBCHEM_COMPOUND_CANONICALIZED>
1

> <PUBCHEM_CACTVS_COMPLEXITY>
196

> <PUBCHEM_CACTVS_HBOND_ACCEPTOR>
1

> <PUBCHEM_CACTVS_HBOND_DONOR>
1

> <PUBCHEM_CACTVS_ROTATABLE_BOND>
5

> <PUBCHEM_CACTVS_SUBSKEYS>
AAADceByAAAGAAAAAAAAAAAAAAAAAAAAAAAwAAAAAAAAAAABAAAAHAIQAAAADQLBGCQyAILAAACAAiBCAACCAAAgBQAIiIAIBogIICKBkxGEIAhgkACIiAcQgAAOhAAAAACBAAAIAAAAAQIAAAAAAAAAAA==

> <PUBCHEM_IUPAC_OPENEYE_NAME>
N-[(2,4-dichlorophenyl)methyl]-2,3-dimethyl-butan-1-amine

> <PUBCHEM_IUPAC_CAS_NAME>
N-[(2,4-dichlorophenyl)methyl]-2,3-dimethyl-1-butanamine

> <PUBCHEM_IUPAC_NAME>
N-[(2,4-dichlorophenyl)methyl]-2,3-dimethylbutan-1-amine

> <PUBCHEM_IUPAC_SYSTEMATIC_NAME>
N-[(2,4-dichlorophenyl)methyl]-2,3-dimethyl-butan-1-amine

> <PUBCHEM_IUPAC_TRADITIONAL_NAME>
(2,4-dichlorobenzyl)-(2,3-dimethylbutyl)amine

> <PUBCHEM_IUPAC_INCHI>
InChI=1S/C13H19Cl2N/c1-9(2)10(3)7-16-8-11-4-5-12(14)6-13(11)15/h4-6,9-10,16H,7-8H2,1-3H3

> <PUBCHEM_IUPAC_INCHIKEY>
HHSVRYWTXOEHJE-UHFFFAOYSA-N

> <PUBCHEM_XLOGP3>
4.9

> <PUBCHEM_EXACT_MASS>
259.089455

> <PUBCHEM_MOLECULAR_FORMULA>
C13H19Cl2N

> <PUBCHEM_MOLECULAR_WEIGHT>
260.20266

> <PUBCHEM_OPENEYE_CAN_SMILES>
CC(C)C(C)CNCC1=C(C=C(C=C1)Cl)Cl

> <PUBCHEM_OPENEYE_ISO_SMILES>
CC(C)C(C)CNCC1=C(C=C(C=C1)Cl)Cl

> <PUBCHEM_CACTVS_TPSA>
12

> <PUBCHEM_MONOISOTOPIC_WEIGHT>
259.089455

> <PUBCHEM_TOTAL_CHARGE>
0

> <PUBCHEM_HEAVY_ATOM_COUNT>
16

> <PUBCHEM_ATOM_DEF_STEREO_COUNT>
0

> <PUBCHEM_ATOM_UDEF_STEREO_COUNT>
1

> <PUBCHEM_BOND_DEF_STEREO_COUNT>
0

> <PUBCHEM_BOND_UDEF_STEREO_COUNT>
0

> <PUBCHEM_ISOTOPIC_ATOM_COUNT>
0

> <PUBCHEM_COMPONENT_COUNT>
1

> <PUBCHEM_CACTVS_TAUTO_COUNT>
1

> <PUBCHEM_COORDINATE_TYPE>
1
5
255

> <PUBCHEM_BONDANNOTATIONS>
11  12  8
11  13  8
12  14  8
13  15  8
14  16  8
15  16  8
4  7  3

$$$$
64569863
  -OEChem-11301218252D

 41 42  0     1  0  0  0  0  0999 V2000
    5.4641   -0.0173    0.0000 N   0  0  0  0  0  0  0  0  0  0  0  0
    3.7320   -0.0173    0.0000 C   0  0  3  0  0  0  0  0  0  0  0  0
    2.8660   -0.5173    0.0000 C   0  0  0  0  0  0  0  0  0  0  0  0
    4.5981   -0.5173    0.0000 C   0  0  0  0  0  0  0  0  0  0  0  0
    3.7320    0.9827    0.0000 C   0  0  0  0  0  0  0  0  0  0  0  0
    2.0000   -0.0173    0.0000 C   0  0  0  0  0  0  0  0  0  0  0  0
    2.8660   -1.5173    0.0000 C   0  0  0  0  0  0  0  0  0  0  0  0
    6.3301   -0.5173    0.0000 C   0  0  0  0  0  0  0  0  0  0  0  0
    7.1962   -0.0173    0.0000 C   0  0  0  0  0  0  0  0  0  0  0  0
    8.0622   -0.5173    0.0000 C   0  0  0  0  0  0  0  0  0  0  0  0
    8.9282   -0.0173    0.0000 C   0  0  0  0  0  0  0  0  0  0  0  0
    7.1962    0.9827    0.0000 C   0  0  0  0  0  0  0  0  0  0  0  0
    8.9282    0.9827    0.0000 C   0  0  0  0  0  0  0  0  0  0  0  0
    8.0622    1.4827    0.0000 C   0  0  0  0  0  0  0  0  0  0  0  0
    9.8222   -0.5520    0.0000 C   0  0  0  0  0  0  0  0  0  0  0  0
    9.8222    1.5173    0.0000 C   0  0  0  0  0  0  0  0  0  0  0  0
   10.7282   -0.0381    0.0000 C   0  0  0  0  0  0  0  0  0  0  0  0
   10.7282    1.0035    0.0000 C   0  0  0  0  0  0  0  0  0  0  0  0
    4.2690    0.2927    0.0000 H   0  0  0  0  0  0  0  0  0  0  0  0
    2.8660    0.1027    0.0000 H   0  0  0  0  0  0  0  0  0  0  0  0
    4.1996   -0.9923    0.0000 H   0  0  0  0  0  0  0  0  0  0  0  0
    4.9966   -0.9923    0.0000 H   0  0  0  0  0  0  0  0  0  0  0  0
    4.3520    0.9827    0.0000 H   0  0  0  0  0  0  0  0  0  0  0  0
    3.7320    1.6027    0.0000 H   0  0  0  0  0  0  0  0  0  0  0  0
    3.1120    0.9827    0.0000 H   0  0  0  0  0  0  0  0  0  0  0  0
    2.3100    0.5196    0.0000 H   0  0  0  0  0  0  0  0  0  0  0  0
    2.2460   -1.5173    0.0000 H   0  0  0  0  0  0  0  0  0  0  0  0
    2.8660   -2.1373    0.0000 H   0  0  0  0  0  0  0  0  0  0  0  0
    3.4860   -1.5173    0.0000 H   0  0  0  0  0  0  0  0  0  0  0  0
    1.4631    0.2927    0.0000 H   0  0  0  0  0  0  0  0  0  0  0  0
    1.6900   -0.5543    0.0000 H   0  0  0  0  0  0  0  0  0  0  0  0
    5.4641    0.6027    0.0000 H   0  0  0  0  0  0  0  0  0  0  0  0
    5.9316   -0.9923    0.0000 H   0  0  0  0  0  0  0  0  0  0  0  0
    6.7287   -0.9923    0.0000 H   0  0  0  0  0  0  0  0  0  0  0  0
    8.0622   -1.1373    0.0000 H   0  0  0  0  0  0  0  0  0  0  0  0
    6.6592    1.2927    0.0000 H   0  0  0  0  0  0  0  0  0  0  0  0
    8.0622    2.1027    0.0000 H   0  0  0  0  0  0  0  0  0  0  0  0
    9.8150   -1.1720    0.0000 H   0  0  0  0  0  0  0  0  0  0  0  0
    9.8150    2.1373    0.0000 H   0  0  0  0  0  0  0  0  0  0  0  0
   11.2639   -0.3502    0.0000 H   0  0  0  0  0  0  0  0  0  0  0  0
   11.2639    1.3156    0.0000 H   0  0  0  0  0  0  0  0  0  0  0  0
  1  4  1  0  0  0  0
  1  8  1  0  0  0  0
  1 32  1  0  0  0  0
  2  3  1  0  0  0  0
  2  4  1  0  0  0  0
  2  5  1  0  0  0  0
  2 19  1  0  0  0  0
  3  6  1  0  0  0  0
  3  7  1  0  0  0  0
  3 20  1  0  0  0  0
  4 21  1  0  0  0  0
  4 22  1  0  0  0  0
  5 23  1  0  0  0  0
  5 24  1  0  0  0  0
  5 25  1  0  0  0  0
  6 26  1  0  0  0  0
  6 30  1  0  0  0  0
  6 31  1  0  0  0  0
  7 27  1  0  0  0  0
  7 28  1  0  0  0  0
  7 29  1  0  0  0  0
  8  9  1  0  0  0  0
  8 33  1  0  0  0  0
  8 34  1  0  0  0  0
  9 10  2  0  0  0  0
  9 12  1  0  0  0  0
 10 11  1  0  0  0  0
 10 35  1  0  0  0  0
 11 13  1  0  0  0  0
 11 15  2  0  0  0  0
 12 14  2  0  0  0  0
 12 36  1  0  0  0  0
 13 14  1  0  0  0  0
 13 16  2  0  0  0  0
 14 37  1  0  0  0  0
 15 17  1  0  0  0  0
 15 38  1  0  0  0  0
 16 18  1  0  0  0  0
 16 39  1  0  0  0  0
 17 18  2  0  0  0  0
 17 40  1  0  0  0  0
 18 41  1  0  0  0  0
M  END
> <PUBCHEM_COMPOUND_CID>
64569863

> <PUBCHEM_COMPOUND_CANONICALIZED>
1

> <PUBCHEM_CACTVS_COMPLEXITY>
236

> <PUBCHEM_CACTVS_HBOND_ACCEPTOR>
1

> <PUBCHEM_CACTVS_HBOND_DONOR>
1

> <PUBCHEM_CACTVS_ROTATABLE_BOND>
5

> <PUBCHEM_CACTVS_SUBSKEYS>
AAADceB6AAAAAAAAAAAAAAAAAAAAAAAAAAAwYAAAAAAAAADBUAAAHAAQAAAADQDBGAQyAMLAAACAAiBCAACCAAAgAAAIiIAIBIgIICKAkRGEIAhgkACIiAcQgMAOwAACAAAQAACAAAQAACAAAAAAAAAAAA==

> <PUBCHEM_IUPAC_OPENEYE_NAME>
2,3-dimethyl-N-(2-naphthylmethyl)butan-1-amine

> <PUBCHEM_IUPAC_CAS_NAME>
2,3-dimethyl-N-(2-naphthalenylmethyl)-1-butanamine

> <PUBCHEM_IUPAC_NAME>
2,3-dimethyl-N-(naphthalen-2-ylmethyl)butan-1-amine

> <PUBCHEM_IUPAC_SYSTEMATIC_NAME>
2,3-dimethyl-N-(naphthalen-2-ylmethyl)butan-1-amine

> <PUBCHEM_IUPAC_TRADITIONAL_NAME>
2,3-dimethylbutyl(2-naphthylmethyl)amine

> <PUBCHEM_IUPAC_INCHI>
InChI=1S/C17H23N/c1-13(2)14(3)11-18-12-15-8-9-16-6-4-5-7-17(16)10-15/h4-10,13-14,18H,11-12H2,1-3H3

> <PUBCHEM_IUPAC_INCHIKEY>
CKQIPIQRGGSYDB-UHFFFAOYSA-N

> <PUBCHEM_XLOGP3>
4.6

> <PUBCHEM_EXACT_MASS>
241.18305

> <PUBCHEM_MOLECULAR_FORMULA>
C17H23N

> <PUBCHEM_MOLECULAR_WEIGHT>
241.37122

> <PUBCHEM_OPENEYE_CAN_SMILES>
CC(C)C(C)CNCC1=CC2=CC=CC=C2C=C1

> <PUBCHEM_OPENEYE_ISO_SMILES>
CC(C)C(C)CNCC1=CC2=CC=CC=C2C=C1

> <PUBCHEM_CACTVS_TPSA>
12

> <PUBCHEM_MONOISOTOPIC_WEIGHT>
241.18305

> <PUBCHEM_TOTAL_CHARGE>
0

> <PUBCHEM_HEAVY_ATOM_COUNT>
18

> <PUBCHEM_ATOM_DEF_STEREO_COUNT>
0

> <PUBCHEM_ATOM_UDEF_STEREO_COUNT>
1

> <PUBCHEM_BOND_DEF_STEREO_COUNT>
0

> <PUBCHEM_BOND_UDEF_STEREO_COUNT>
0

> <PUBCHEM_ISOTOPIC_ATOM_COUNT>
0

> <PUBCHEM_COMPONENT_COUNT>
1

> <PUBCHEM_CACTVS_TAUTO_COUNT>
1

> <PUBCHEM_COORDINATE_TYPE>
1
5
255

> <PUBCHEM_BONDANNOTATIONS>
10  11  8
11  13  8
11  15  8
12  14  8
13  14  8
13  16  8
15  17  8
16  18  8
17  18  8
2  5  3
9  10  8
9  12  8

$$$$
64570244
  -OEChem-11301218252D

 42 43  0     1  0  0  0  0  0999 V2000
    5.4641   -0.5173    0.0000 N   0  0  0  0  0  0  0  0  0  0  0  0
    6.3301   -0.0173    0.0000 C   0  0  3  0  0  0  0  0  0  0  0  0
    6.3301    0.9827    0.0000 C   0  0  0  0  0  0  0  0  0  0  0  0
    7.1962   -0.5173    0.0000 C   0  0  0  0  0  0  0  0  0  0  0  0
    3.7320   -0.5173    0.0000 C   0  0  3  0  0  0  0  0  0  0  0  0
    4.5981   -0.0173    0.0000 C   0  0  0  0  0  0  0  0  0  0  0  0
    7.1962    1.4827    0.0000 C   0  0  0  0  0  0  0  0  0  0  0  0
    2.8660   -0.0173    0.0000 C   0  0  0  0  0  0  0  0  0  0  0  0
    8.0622   -0.0173    0.0000 C   0  0  0  0  0  0  0  0  0  0  0  0
    8.0622    0.9827    0.0000 C   0  0  0  0  0  0  0  0  0  0  0  0
    3.7320   -1.5173    0.0000 C   0  0  0  0  0  0  0  0  0  0  0  0
    2.0000   -0.5173    0.0000 C   0  0  0  0  0  0  0  0  0  0  0  0
    2.8660    0.9827    0.0000 C   0  0  0  0  0  0  0  0  0  0  0  0
    8.9561   -0.5520    0.0000 C   0  0  0  0  0  0  0  0  0  0  0  0
    8.9561    1.5173    0.0000 C   0  0  0  0  0  0  0  0  0  0  0  0
    9.8622   -0.0381    0.0000 C   0  0  0  0  0  0  0  0  0  0  0  0
    9.8622    1.0035    0.0000 C   0  0  0  0  0  0  0  0  0  0  0  0
    5.7932    0.2927    0.0000 H   0  0  0  0  0  0  0  0  0  0  0  0
    6.1181    1.5653    0.0000 H   0  0  0  0  0  0  0  0  0  0  0  0
    5.7196    0.8750    0.0000 H   0  0  0  0  0  0  0  0  0  0  0  0
    6.7976   -0.9923    0.0000 H   0  0  0  0  0  0  0  0  0  0  0  0
    7.5947   -0.9923    0.0000 H   0  0  0  0  0  0  0  0  0  0  0  0
    4.2690   -0.8273    0.0000 H   0  0  0  0  0  0  0  0  0  0  0  0
    4.9966    0.4576    0.0000 H   0  0  0  0  0  0  0  0  0  0  0  0
    4.1996    0.4576    0.0000 H   0  0  0  0  0  0  0  0  0  0  0  0
    5.4641   -1.1373    0.0000 H   0  0  0  0  0  0  0  0  0  0  0  0
    7.5947    1.9576    0.0000 H   0  0  0  0  0  0  0  0  0  0  0  0
    6.7976    1.9576    0.0000 H   0  0  0  0  0  0  0  0  0  0  0  0
    2.8660   -0.6373    0.0000 H   0  0  0  0  0  0  0  0  0  0  0  0
    3.1120   -1.5173    0.0000 H   0  0  0  0  0  0  0  0  0  0  0  0
    3.7320   -2.1373    0.0000 H   0  0  0  0  0  0  0  0  0  0  0  0
    4.3520   -1.5173    0.0000 H   0  0  0  0  0  0  0  0  0  0  0  0
    1.6900    0.0196    0.0000 H   0  0  0  0  0  0  0  0  0  0  0  0
    3.4860    0.9827    0.0000 H   0  0  0  0  0  0  0  0  0  0  0  0
    2.8660    1.6027    0.0000 H   0  0  0  0  0  0  0  0  0  0  0  0
    2.2460    0.9827    0.0000 H   0  0  0  0  0  0  0  0  0  0  0  0
    1.4631   -0.8273    0.0000 H   0  0  0  0  0  0  0  0  0  0  0  0
    2.3100   -1.0543    0.0000 H   0  0  0  0  0  0  0  0  0  0  0  0
    8.9490   -1.1720    0.0000 H   0  0  0  0  0  0  0  0  0  0  0  0
    8.9490    2.1373    0.0000 H   0  0  0  0  0  0  0  0  0  0  0  0
   10.3979   -0.3502    0.0000 H   0  0  0  0  0  0  0  0  0  0  0  0
   10.3979    1.3156    0.0000 H   0  0  0  0  0  0  0  0  0  0  0  0
  1  2  1  0  0  0  0
  1  6  1  0  0  0  0
  1 26  1  0  0  0  0
  2  3  1  0  0  0  0
  2  4  1  0  0  0  0
  2 18  1  0  0  0  0
  3  7  1  0  0  0  0
  3 19  1  0  0  0  0
  3 20  1  0  0  0  0
  4  9  1  0  0  0  0
  4 21  1  0  0  0  0
  4 22  1  0  0  0  0
  5  6  1  0  0  0  0
  5  8  1  0  0  0  0
  5 11  1  0  0  0  0
  5 23  1  0  0  0  0
  6 24  1  0  0  0  0
  6 25  1  0  0  0  0
  7 10  1  0  0  0  0
  7 27  1  0  0  0  0
  7 28  1  0  0  0  0
  8 12  1  0  0  0  0
  8 13  1  0  0  0  0
  8 29  1  0  0  0  0
  9 10  1  0  0  0  0
  9 14  2  0  0  0  0
 10 15  2  0  0  0  0
 11 30  1  0  0  0  0
 11 31  1  0  0  0  0
 11 32  1  0  0  0  0
 12 33  1  0  0  0  0
 12 37  1  0  0  0  0
 12 38  1  0  0  0  0
 13 34  1  0  0  0  0
 13 35  1  0  0  0  0
 13 36  1  0  0  0  0
 14 16  1  0  0  0  0
 14 39  1  0  0  0  0
 15 17  1  0  0  0  0
 15 40  1  0  0  0  0
 16 17  2  0  0  0  0
 16 41  1  0  0  0  0
 17 42  1  0  0  0  0
M  END
> <PUBCHEM_COMPOUND_CID>
64570244

> <PUBCHEM_COMPOUND_CANONICALIZED>
1

> <PUBCHEM_CACTVS_COMPLEXITY>
224

> <PUBCHEM_CACTVS_HBOND_ACCEPTOR>
1

> <PUBCHEM_CACTVS_HBOND_DONOR>
1

> <PUBCHEM_CACTVS_ROTATABLE_BOND>
4

> <PUBCHEM_CACTVS_SUBSKEYS>
AAADceB6AAAAAAAAAAAAAAAAAAAAAAAAAAAwYAAAAAAAAADBAAAAHAAQAAAADSjBGAQyAILAAACAAiBCAAACAAAgAAAIiIAIAIgIICKAkRGEIAAgkACIiAcQgIAOgAAAAAAQAAAQAACAACAAAAAAAAAAAA==

> <PUBCHEM_IUPAC_OPENEYE_NAME>
N-(2,3-dimethylbutyl)tetralin-2-amine

> <PUBCHEM_IUPAC_CAS_NAME>
N-(2,3-dimethylbutyl)-1,2,3,4-tetrahydronaphthalen-2-amine

> <PUBCHEM_IUPAC_NAME>
N-(2,3-dimethylbutyl)-1,2,3,4-tetrahydronaphthalen-2-amine

> <PUBCHEM_IUPAC_SYSTEMATIC_NAME>
N-(2,3-dimethylbutyl)-1,2,3,4-tetrahydronaphthalen-2-amine

> <PUBCHEM_IUPAC_TRADITIONAL_NAME>
2,3-dimethylbutyl(tetralin-2-yl)amine

> <PUBCHEM_IUPAC_INCHI>
InChI=1S/C16H25N/c1-12(2)13(3)11-17-16-9-8-14-6-4-5-7-15(14)10-16/h4-7,12-13,16-17H,8-11H2,1-3H3

> <PUBCHEM_IUPAC_INCHIKEY>
BGQSSXBSKJLUTJ-UHFFFAOYSA-N

> <PUBCHEM_XLOGP3>
4.5

> <PUBCHEM_EXACT_MASS>
231.1987

> <PUBCHEM_MOLECULAR_FORMULA>
C16H25N

> <PUBCHEM_MOLECULAR_WEIGHT>
231.3764

> <PUBCHEM_OPENEYE_CAN_SMILES>
CC(C)C(C)CNC1CCC2=CC=CC=C2C1

> <PUBCHEM_OPENEYE_ISO_SMILES>
CC(C)C(C)CNC1CCC2=CC=CC=C2C1

> <PUBCHEM_CACTVS_TPSA>
12

> <PUBCHEM_MONOISOTOPIC_WEIGHT>
231.1987

> <PUBCHEM_TOTAL_CHARGE>
0

> <PUBCHEM_HEAVY_ATOM_COUNT>
17

> <PUBCHEM_ATOM_DEF_STEREO_COUNT>
0

> <PUBCHEM_ATOM_UDEF_STEREO_COUNT>
2

> <PUBCHEM_BOND_DEF_STEREO_COUNT>
0

> <PUBCHEM_BOND_UDEF_STEREO_COUNT>
0

> <PUBCHEM_ISOTOPIC_ATOM_COUNT>
0

> <PUBCHEM_COMPONENT_COUNT>
1

> <PUBCHEM_CACTVS_TAUTO_COUNT>
1

> <PUBCHEM_COORDINATE_TYPE>
1
5
255

> <PUBCHEM_BONDANNOTATIONS>
2  1  3
10  15  8
14  16  8
15  17  8
16  17  8
5  11  3
9  10  8
9  14  8

$$$$
64570853
  -OEChem-11301218252D

 35 35  0     1  0  0  0  0  0999 V2000
    2.0000   -3.2500    0.0000 Cl  0  0  0  0  0  0  0  0  0  0  0  0
    4.5981    0.2500    0.0000 N   0  0  0  0  0  0  0  0  0  0  0  0
    5.4641    1.7500    0.0000 C   0  0  3  0  0  0  0  0  0  0  0  0
    5.4641    2.7500    0.0000 C   0  0  0  0  0  0  0  0  0  0  0  0
    4.5981    1.2500    0.0000 C   0  0  0  0  0  0  0  0  0  0  0  0
    6.3301    1.2500    0.0000 C   0  0  0  0  0  0  0  0  0  0  0  0
    6.3301    3.2500    0.0000 C   0  0  0  0  0  0  0  0  0  0  0  0
    4.5981    3.2500    0.0000 C   0  0  0  0  0  0  0  0  0  0  0  0
    3.7320   -0.2500    0.0000 C   0  0  0  0  0  0  0  0  0  0  0  0
    3.7320   -1.2500    0.0000 C   0  0  0  0  0  0  0  0  0  0  0  0
    2.8660   -1.7500    0.0000 C   0  0  0  0  0  0  0  0  0  0  0  0
    4.5981   -1.7500    0.0000 C   0  0  0  0  0  0  0  0  0  0  0  0
    2.8660   -2.7500    0.0000 C   0  0  0  0  0  0  0  0  0  0  0  0
    4.5981   -2.7500    0.0000 C   0  0  0  0  0  0  0  0  0  0  0  0
    3.7320   -3.2500    0.0000 C   0  0  0  0  0  0  0  0  0  0  0  0
    5.4641    1.1300    0.0000 H   0  0  0  0  0  0  0  0  0  0  0  0
    5.4641    3.3700    0.0000 H   0  0  0  0  0  0  0  0  0  0  0  0
    4.3860    1.8326    0.0000 H   0  0  0  0  0  0  0  0  0  0  0  0
    3.9875    1.1423    0.0000 H   0  0  0  0  0  0  0  0  0  0  0  0
    6.0201    0.7131    0.0000 H   0  0  0  0  0  0  0  0  0  0  0  0
    6.8671    0.9400    0.0000 H   0  0  0  0  0  0  0  0  0  0  0  0
    6.6401    1.7869    0.0000 H   0  0  0  0  0  0  0  0  0  0  0  0
    6.6401    2.7131    0.0000 H   0  0  0  0  0  0  0  0  0  0  0  0
    4.9081    3.7869    0.0000 H   0  0  0  0  0  0  0  0  0  0  0  0
    4.0611    3.5600    0.0000 H   0  0  0  0  0  0  0  0  0  0  0  0
    4.2881    2.7131    0.0000 H   0  0  0  0  0  0  0  0  0  0  0  0
    6.8671    3.5600    0.0000 H   0  0  0  0  0  0  0  0  0  0  0  0
    6.0201    3.7869    0.0000 H   0  0  0  0  0  0  0  0  0  0  0  0
    5.1350   -0.0600    0.0000 H   0  0  0  0  0  0  0  0  0  0  0  0
    3.5200    0.3326    0.0000 H   0  0  0  0  0  0  0  0  0  0  0  0
    3.1215   -0.3577    0.0000 H   0  0  0  0  0  0  0  0  0  0  0  0
    2.3291   -1.4400    0.0000 H   0  0  0  0  0  0  0  0  0  0  0  0
    5.1350   -1.4400    0.0000 H   0  0  0  0  0  0  0  0  0  0  0  0
    5.1350   -3.0600    0.0000 H   0  0  0  0  0  0  0  0  0  0  0  0
    3.7320   -3.8700    0.0000 H   0  0  0  0  0  0  0  0  0  0  0  0
  1 13  1  0  0  0  0
  2  5  1  0  0  0  0
  2  9  1  0  0  0  0
  2 29  1  0  0  0  0
  3  4  1  0  0  0  0
  3  5  1  0  0  0  0
  3  6  1  0  0  0  0
  3 16  1  0  0  0  0
  4  7  1  0  0  0  0
  4  8  1  0  0  0  0
  4 17  1  0  0  0  0
  5 18  1  0  0  0  0
  5 19  1  0  0  0  0
  6 20  1  0  0  0  0
  6 21  1  0  0  0  0
  6 22  1  0  0  0  0
  7 23  1  0  0  0  0
  7 27  1  0  0  0  0
  7 28  1  0  0  0  0
  8 24  1  0  0  0  0
  8 25  1  0  0  0  0
  8 26  1  0  0  0  0
  9 10  1  0  0  0  0
  9 30  1  0  0  0  0
  9 31  1  0  0  0  0
 10 11  2  0  0  0  0
 10 12  1  0  0  0  0
 11 13  1  0  0  0  0
 11 32  1  0  0  0  0
 12 14  2  0  0  0  0
 12 33  1  0  0  0  0
 13 15  2  0  0  0  0
 14 15  1  0  0  0  0
 14 34  1  0  0  0  0
 15 35  1  0  0  0  0
M  END
> <PUBCHEM_COMPOUND_CID>
64570853

> <PUBCHEM_COMPOUND_CANONICALIZED>
1

> <PUBCHEM_CACTVS_COMPLEXITY>
170

> <PUBCHEM_CACTVS_HBOND_ACCEPTOR>
1

> <PUBCHEM_CACTVS_HBOND_DONOR>
1

> <PUBCHEM_CACTVS_ROTATABLE_BOND>
5

> <PUBCHEM_CACTVS_SUBSKEYS>
AAADceByAAAEAAAAAAAAAAAAAAAAAAAAAAAwAAAAAAAAAAABAAAAHAIQAAAADQLBGCQyAILAAACAAiBCAACCAAAgBQAIiIAIBogIICKBkxGEIAhgkACIiAcQgAAOgAAAIAAAAAAAAABAAAAAAAAAAAAAAA==

> <PUBCHEM_IUPAC_OPENEYE_NAME>
N-[(3-chlorophenyl)methyl]-2,3-dimethyl-butan-1-amine

> <PUBCHEM_IUPAC_CAS_NAME>
N-[(3-chlorophenyl)methyl]-2,3-dimethyl-1-butanamine

> <PUBCHEM_IUPAC_NAME>
N-[(3-chlorophenyl)methyl]-2,3-dimethylbutan-1-amine

> <PUBCHEM_IUPAC_SYSTEMATIC_NAME>
N-[(3-chlorophenyl)methyl]-2,3-dimethyl-butan-1-amine

> <PUBCHEM_IUPAC_TRADITIONAL_NAME>
(3-chlorobenzyl)-(2,3-dimethylbutyl)amine

> <PUBCHEM_IUPAC_INCHI>
InChI=1S/C13H20ClN/c1-10(2)11(3)8-15-9-12-5-4-6-13(14)7-12/h4-7,10-11,15H,8-9H2,1-3H3

> <PUBCHEM_IUPAC_INCHIKEY>
ZENRPHZCQSULCQ-UHFFFAOYSA-N

> <PUBCHEM_XLOGP3>
4.3

> <PUBCHEM_EXACT_MASS>
225.128427

> <PUBCHEM_MOLECULAR_FORMULA>
C13H20ClN

> <PUBCHEM_MOLECULAR_WEIGHT>
225.7576

> <PUBCHEM_OPENEYE_CAN_SMILES>
CC(C)C(C)CNCC1=CC(=CC=C1)Cl

> <PUBCHEM_OPENEYE_ISO_SMILES>
CC(C)C(C)CNCC1=CC(=CC=C1)Cl

> <PUBCHEM_CACTVS_TPSA>
12

> <PUBCHEM_MONOISOTOPIC_WEIGHT>
225.128427

> <PUBCHEM_TOTAL_CHARGE>
0

> <PUBCHEM_HEAVY_ATOM_COUNT>
15

> <PUBCHEM_ATOM_DEF_STEREO_COUNT>
0

> <PUBCHEM_ATOM_UDEF_STEREO_COUNT>
1

> <PUBCHEM_BOND_DEF_STEREO_COUNT>
0

> <PUBCHEM_BOND_UDEF_STEREO_COUNT>
0

> <PUBCHEM_ISOTOPIC_ATOM_COUNT>
0

> <PUBCHEM_COMPONENT_COUNT>
1

> <PUBCHEM_CACTVS_TAUTO_COUNT>
1

> <PUBCHEM_COORDINATE_TYPE>
1
5
255

> <PUBCHEM_BONDANNOTATIONS>
10  11  8
10  12  8
11  13  8
12  14  8
13  15  8
14  15  8
3  6  3

$$$$
