31659783
  -OEChem-12041211432D

 39 40  0     0  0  0  0  0  0999 V2000
    6.3301    0.0072    0.0000 S   0  0  0  0  0  0  0  0  0  0  0  0
    5.5211    1.5950    0.0000 S   0  0  0  0  0  0  0  0  0  0  0  0
    5.2423    3.3551    0.0000 S   0  0  0  0  0  0  0  0  0  0  0  0
    4.5981   -5.9928    0.0000 O   0  0  0  0  0  0  0  0  0  0  0  0
    6.3301   -1.9928    0.0000 O   0  0  0  0  0  0  0  0  0  0  0  0
    2.0000   -3.4928    0.0000 O   0  5  0  0  0  0  0  0  0  0  0  0
    2.8660   -1.9928    0.0000 O   0  0  0  0  0  0  0  0  0  0  0  0
    4.0668    4.9731    0.0000 O   0  0  0  0  0  0  0  0  0  0  0  0
    4.5981   -1.9928    0.0000 N   0  0  0  0  0  0  0  0  0  0  0  0
    2.8660   -2.9928    0.0000 N   0  3  0  0  0  0  0  0  0  0  0  0
    7.1391    1.5950    0.0000 N   0  0  0  0  0  0  0  0  0  0  0  0
    6.8301    2.5461    0.0000 N   0  0  0  0  0  0  0  0  0  0  0  0
    5.4680    5.9912    0.0000 N   0  0  0  0  0  0  0  0  0  0  0  0
    4.5981   -2.9928    0.0000 C   0  0  0  0  0  0  0  0  0  0  0  0
    3.7320   -3.4928    0.0000 C   0  0  0  0  0  0  0  0  0  0  0  0
    5.4641   -3.4928    0.0000 C   0  0  0  0  0  0  0  0  0  0  0  0
    3.7320   -4.4928    0.0000 C   0  0  0  0  0  0  0  0  0  0  0  0
    4.5981   -4.9928    0.0000 C   0  0  0  0  0  0  0  0  0  0  0  0
    5.4641   -4.4928    0.0000 C   0  0  0  0  0  0  0  0  0  0  0  0
    5.4641   -1.4928    0.0000 C   0  0  0  0  0  0  0  0  0  0  0  0
    5.4641   -0.4928    0.0000 C   0  0  0  0  0  0  0  0  0  0  0  0
    6.3301    1.0072    0.0000 C   0  0  0  0  0  0  0  0  0  0  0  0
    5.4641   -6.4928    0.0000 C   0  0  0  0  0  0  0  0  0  0  0  0
    5.8301    2.5461    0.0000 C   0  0  0  0  0  0  0  0  0  0  0  0
    5.6491    4.2686    0.0000 C   0  0  0  0  0  0  0  0  0  0  0  0
    5.0613    5.0776    0.0000 C   0  0  0  0  0  0  0  0  0  0  0  0
    6.0010   -3.1828    0.0000 H   0  0  0  0  0  0  0  0  0  0  0  0
    3.1951   -4.8028    0.0000 H   0  0  0  0  0  0  0  0  0  0  0  0
    4.0611   -1.6828    0.0000 H   0  0  0  0  0  0  0  0  0  0  0  0
    6.0010   -4.8028    0.0000 H   0  0  0  0  0  0  0  0  0  0  0  0
    5.2520    0.0898    0.0000 H   0  0  0  0  0  0  0  0  0  0  0  0
    4.8535   -0.6004    0.0000 H   0  0  0  0  0  0  0  0  0  0  0  0
    5.1541   -7.0297    0.0000 H   0  0  0  0  0  0  0  0  0  0  0  0
    6.0010   -6.8028    0.0000 H   0  0  0  0  0  0  0  0  0  0  0  0
    5.7741   -5.9558    0.0000 H   0  0  0  0  0  0  0  0  0  0  0  0
    6.1631    3.9219    0.0000 H   0  0  0  0  0  0  0  0  0  0  0  0
    6.0798    4.7146    0.0000 H   0  0  0  0  0  0  0  0  0  0  0  0
    5.1036    6.4928    0.0000 H   0  0  0  0  0  0  0  0  0  0  0  0
    6.0846    6.0560    0.0000 H   0  0  0  0  0  0  0  0  0  0  0  0
  1 21  1  0  0  0  0
  1 22  1  0  0  0  0
  2 22  1  0  0  0  0
  2 24  1  0  0  0  0
  3 24  1  0  0  0  0
  3 25  1  0  0  0  0
  4 18  1  0  0  0  0
  4 23  1  0  0  0  0
  5 20  2  0  0  0  0
  6 10  1  0  0  0  0
  7 10  2  0  0  0  0
  8 26  2  0  0  0  0
  9 14  1  0  0  0  0
  9 20  1  0  0  0  0
  9 29  1  0  0  0  0
 10 15  1  0  0  0  0
 11 12  1  0  0  0  0
 11 22  2  0  0  0  0
 12 24  2  0  0  0  0
 13 26  1  0  0  0  0
 13 38  1  0  0  0  0
 13 39  1  0  0  0  0
 14 15  2  0  0  0  0
 14 16  1  0  0  0  0
 15 17  1  0  0  0  0
 16 19  2  0  0  0  0
 16 27  1  0  0  0  0
 17 18  2  0  0  0  0
 17 28  1  0  0  0  0
 18 19  1  0  0  0  0
 19 30  1  0  0  0  0
 20 21  1  0  0  0  0
 21 31  1  0  0  0  0
 21 32  1  0  0  0  0
 23 33  1  0  0  0  0
 23 34  1  0  0  0  0
 23 35  1  0  0  0  0
 25 26  1  0  0  0  0
 25 36  1  0  0  0  0
 25 37  1  0  0  0  0
M  CHG  2   6  -1  10   1
M  END
> <PUBCHEM_COMPOUND_CID>
31659783

> <PUBCHEM_COMPOUND_CANONICALIZED>
1

> <PUBCHEM_CACTVS_COMPLEXITY>
523

> <PUBCHEM_CACTVS_HBOND_ACCEPTOR>
10

> <PUBCHEM_CACTVS_HBOND_DONOR>
2

> <PUBCHEM_CACTVS_ROTATABLE_BOND>
8

> <PUBCHEM_CACTVS_SUBSKEYS>
AAADccBzuABgAAAAAAAAAAAAAAAAAWAAAAAwAAAAAAAAAAABwAAAHgQcAAAACAyF0AKyxoLQRAivACVSUwCSCQBhIhAoiAAGfIoMZiLEsZuUMChm1JnI6AewUAEAAEAAAgAAACAAgAAEAAAAQAAAAAAAAA==

> <PUBCHEM_IUPAC_OPENEYE_NAME>
2-[[5-[2-(4-methoxy-2-nitro-anilino)-2-oxo-ethyl]sulfanyl-1,3,4-thiadiazol-2-yl]sulfanyl]acetamide

> <PUBCHEM_IUPAC_CAS_NAME>
2-[[5-[[2-(4-methoxy-2-nitroanilino)-2-oxoethyl]thio]-1,3,4-thiadiazol-2-yl]thio]acetamide

> <PUBCHEM_IUPAC_NAME>
2-[[5-[2-(4-methoxy-2-nitroanilino)-2-oxoethyl]sulfanyl-1,3,4-thiadiazol-2-yl]sulfanyl]acetamide

> <PUBCHEM_IUPAC_SYSTEMATIC_NAME>
2-[[5-[2-[(4-methoxy-2-nitro-phenyl)amino]-2-oxidanylidene-ethyl]sulfanyl-1,3,4-thiadiazol-2-yl]sulfanyl]ethanamide

> <PUBCHEM_IUPAC_TRADITIONAL_NAME>
2-[[5-[[2-keto-2-(4-methoxy-2-nitro-anilino)ethyl]thio]-1,3,4-thiadiazol-2-yl]thio]acetamide

> <PUBCHEM_IUPAC_INCHI>
InChI=1S/C13H13N5O5S3/c1-23-7-2-3-8(9(4-7)18(21)22)15-11(20)6-25-13-17-16-12(26-13)24-5-10(14)19/h2-4H,5-6H2,1H3,(H2,14,19)(H,15,20)

> <PUBCHEM_IUPAC_INCHIKEY>
KBFMGCOHWIANBL-UHFFFAOYSA-N

> <PUBCHEM_XLOGP3>
1.9

> <PUBCHEM_EXACT_MASS>
415.007882

> <PUBCHEM_MOLECULAR_FORMULA>
C13H13N5O5S3

> <PUBCHEM_MOLECULAR_WEIGHT>
415.46782

> <PUBCHEM_OPENEYE_CAN_SMILES>
COC1=CC(=C(C=C1)NC(=O)CSC2=NN=C(S2)SCC(=O)N)[N+](=O)[O-]

> <PUBCHEM_OPENEYE_ISO_SMILES>
COC1=CC(=C(C=C1)NC(=O)CSC2=NN=C(S2)SCC(=O)N)[N+](=O)[O-]

> <PUBCHEM_CACTVS_TPSA>
232

> <PUBCHEM_MONOISOTOPIC_WEIGHT>
415.007882

> <PUBCHEM_TOTAL_CHARGE>
0

> <PUBCHEM_HEAVY_ATOM_COUNT>
26

> <PUBCHEM_ATOM_DEF_STEREO_COUNT>
0

> <PUBCHEM_ATOM_UDEF_STEREO_COUNT>
0

> <PUBCHEM_BOND_DEF_STEREO_COUNT>
0

> <PUBCHEM_BOND_UDEF_STEREO_COUNT>
0

> <PUBCHEM_ISOTOPIC_ATOM_COUNT>
0

> <PUBCHEM_COMPONENT_COUNT>
1

> <PUBCHEM_CACTVS_TAUTO_COUNT>
4

> <PUBCHEM_COORDINATE_TYPE>
1
5
255

> <PUBCHEM_BONDANNOTATIONS>
11  12  8
11  22  8
12  24  8
14  15  8
14  16  8
15  17  8
16  19  8
17  18  8
18  19  8
2  22  8
2  24  8

$$$$
31661083
  -OEChem-12041211432D

 48 49  0     0  0  0  0  0  0999 V2000
    5.2423    2.3401    0.0000 S   0  0  0  0  0  0  0  0  0  0  0  0
    6.3301   -1.0078    0.0000 S   0  0  0  0  0  0  0  0  0  0  0  0
    5.5211    0.5800    0.0000 S   0  0  0  0  0  0  0  0  0  0  0  0
    4.5981   -7.0078    0.0000 O   0  0  0  0  0  0  0  0  0  0  0  0
    4.0668    3.9581    0.0000 O   0  0  0  0  0  0  0  0  0  0  0  0
    6.3301   -3.0078    0.0000 O   0  0  0  0  0  0  0  0  0  0  0  0
    2.0000   -4.5078    0.0000 O   0  5  0  0  0  0  0  0  0  0  0  0
    2.8660   -3.0078    0.0000 O   0  0  0  0  0  0  0  0  0  0  0  0
    5.4680    4.9762    0.0000 N   0  0  0  0  0  0  0  0  0  0  0  0
    4.5981   -3.0078    0.0000 N   0  0  0  0  0  0  0  0  0  0  0  0
    2.8660   -4.0078    0.0000 N   0  3  0  0  0  0  0  0  0  0  0  0
    6.8301    1.5311    0.0000 N   0  0  0  0  0  0  0  0  0  0  0  0
    7.1391    0.5800    0.0000 N   0  0  0  0  0  0  0  0  0  0  0  0
    4.8802    5.7852    0.0000 C   0  0  0  0  0  0  0  0  0  0  0  0
    5.2870    6.6988    0.0000 C   0  0  0  0  0  0  0  0  0  0  0  0
    4.5981   -4.0078    0.0000 C   0  0  0  0  0  0  0  0  0  0  0  0
    3.7320   -4.5078    0.0000 C   0  0  0  0  0  0  0  0  0  0  0  0
    4.6992    7.5078    0.0000 C   0  0  0  0  0  0  0  0  0  0  0  0
    5.4641   -4.5078    0.0000 C   0  0  0  0  0  0  0  0  0  0  0  0
    3.7320   -5.5078    0.0000 C   0  0  0  0  0  0  0  0  0  0  0  0
    4.5981   -6.0078    0.0000 C   0  0  0  0  0  0  0  0  0  0  0  0
    5.4641   -5.5078    0.0000 C   0  0  0  0  0  0  0  0  0  0  0  0
    5.0613    4.0626    0.0000 C   0  0  0  0  0  0  0  0  0  0  0  0
    5.6491    3.2536    0.0000 C   0  0  0  0  0  0  0  0  0  0  0  0
    5.4641   -2.5078    0.0000 C   0  0  0  0  0  0  0  0  0  0  0  0
    5.4641   -1.5078    0.0000 C   0  0  0  0  0  0  0  0  0  0  0  0
    5.8301    1.5311    0.0000 C   0  0  0  0  0  0  0  0  0  0  0  0
    6.3301   -0.0078    0.0000 C   0  0  0  0  0  0  0  0  0  0  0  0
    5.4641   -7.5078    0.0000 C   0  0  0  0  0  0  0  0  0  0  0  0
    4.3662    6.1319    0.0000 H   0  0  0  0  0  0  0  0  0  0  0  0
    4.4496    5.3392    0.0000 H   0  0  0  0  0  0  0  0  0  0  0  0
    5.8010    6.3521    0.0000 H   0  0  0  0  0  0  0  0  0  0  0  0
    5.7177    7.1448    0.0000 H   0  0  0  0  0  0  0  0  0  0  0  0
    6.0846    5.0410    0.0000 H   0  0  0  0  0  0  0  0  0  0  0  0
    5.2008    7.8722    0.0000 H   0  0  0  0  0  0  0  0  0  0  0  0
    4.3348    8.0094    0.0000 H   0  0  0  0  0  0  0  0  0  0  0  0
    4.1976    7.1434    0.0000 H   0  0  0  0  0  0  0  0  0  0  0  0
    6.0010   -4.1978    0.0000 H   0  0  0  0  0  0  0  0  0  0  0  0
    3.1951   -5.8178    0.0000 H   0  0  0  0  0  0  0  0  0  0  0  0
    4.0611   -2.6978    0.0000 H   0  0  0  0  0  0  0  0  0  0  0  0
    6.0010   -5.8178    0.0000 H   0  0  0  0  0  0  0  0  0  0  0  0
    6.1631    2.9069    0.0000 H   0  0  0  0  0  0  0  0  0  0  0  0
    6.0798    3.6996    0.0000 H   0  0  0  0  0  0  0  0  0  0  0  0
    5.2520   -0.9252    0.0000 H   0  0  0  0  0  0  0  0  0  0  0  0
    4.8535   -1.6154    0.0000 H   0  0  0  0  0  0  0  0  0  0  0  0
    5.1541   -8.0447    0.0000 H   0  0  0  0  0  0  0  0  0  0  0  0
    6.0010   -7.8178    0.0000 H   0  0  0  0  0  0  0  0  0  0  0  0
    5.7741   -6.9708    0.0000 H   0  0  0  0  0  0  0  0  0  0  0  0
  1 24  1  0  0  0  0
  1 27  1  0  0  0  0
  2 26  1  0  0  0  0
  2 28  1  0  0  0  0
  3 27  1  0  0  0  0
  3 28  1  0  0  0  0
  4 21  1  0  0  0  0
  4 29  1  0  0  0  0
  5 23  2  0  0  0  0
  6 25  2  0  0  0  0
  7 11  1  0  0  0  0
  8 11  2  0  0  0  0
  9 14  1  0  0  0  0
  9 23  1  0  0  0  0
  9 34  1  0  0  0  0
 10 16  1  0  0  0  0
 10 25  1  0  0  0  0
 10 40  1  0  0  0  0
 11 17  1  0  0  0  0
 12 13  1  0  0  0  0
 12 27  2  0  0  0  0
 13 28  2  0  0  0  0
 14 15  1  0  0  0  0
 14 30  1  0  0  0  0
 14 31  1  0  0  0  0
 15 18  1  0  0  0  0
 15 32  1  0  0  0  0
 15 33  1  0  0  0  0
 16 17  2  0  0  0  0
 16 19  1  0  0  0  0
 17 20  1  0  0  0  0
 18 35  1  0  0  0  0
 18 36  1  0  0  0  0
 18 37  1  0  0  0  0
 19 22  2  0  0  0  0
 19 38  1  0  0  0  0
 20 21  2  0  0  0  0
 20 39  1  0  0  0  0
 21 22  1  0  0  0  0
 22 41  1  0  0  0  0
 23 24  1  0  0  0  0
 24 42  1  0  0  0  0
 24 43  1  0  0  0  0
 25 26  1  0  0  0  0
 26 44  1  0  0  0  0
 26 45  1  0  0  0  0
 29 46  1  0  0  0  0
 29 47  1  0  0  0  0
 29 48  1  0  0  0  0
M  CHG  2   7  -1  11   1
M  END
> <PUBCHEM_COMPOUND_CID>
31661083

> <PUBCHEM_COMPOUND_CANONICALIZED>
1

> <PUBCHEM_CACTVS_COMPLEXITY>
568

> <PUBCHEM_CACTVS_HBOND_ACCEPTOR>
10

> <PUBCHEM_CACTVS_HBOND_DONOR>
2

> <PUBCHEM_CACTVS_ROTATABLE_BOND>
10

> <PUBCHEM_CACTVS_SUBSKEYS>
AAADceB7uABgAAAAAAAAAAAAAAAAAWAAAAAwAAAAAAAAAAABwAAAHgQcAAAACAzF0AayxoLQRAivACVSUwCSCQBhIhAoiIAOfIoMZiLEsZuUMChm1pnI6AewUAEAAEAAAgAAACAAgAAEAAAAQAAAAAAAAA==

> <PUBCHEM_IUPAC_OPENEYE_NAME>
2-[[5-[2-(4-methoxy-2-nitro-anilino)-2-oxo-ethyl]sulfanyl-1,3,4-thiadiazol-2-yl]sulfanyl]-N-propyl-acetamide

> <PUBCHEM_IUPAC_CAS_NAME>
2-[[5-[[2-(4-methoxy-2-nitroanilino)-2-oxoethyl]thio]-1,3,4-thiadiazol-2-yl]thio]-N-propylacetamide

> <PUBCHEM_IUPAC_NAME>
2-[[5-[2-(4-methoxy-2-nitroanilino)-2-oxoethyl]sulfanyl-1,3,4-thiadiazol-2-yl]sulfanyl]-N-propylacetamide

> <PUBCHEM_IUPAC_SYSTEMATIC_NAME>
2-[[5-[2-[(4-methoxy-2-nitro-phenyl)amino]-2-oxidanylidene-ethyl]sulfanyl-1,3,4-thiadiazol-2-yl]sulfanyl]-N-propyl-ethanamide

> <PUBCHEM_IUPAC_TRADITIONAL_NAME>
2-[[5-[[2-keto-2-(4-methoxy-2-nitro-anilino)ethyl]thio]-1,3,4-thiadiazol-2-yl]thio]-N-propyl-acetamide

> <PUBCHEM_IUPAC_INCHI>
InChI=1S/C16H19N5O5S3/c1-3-6-17-13(22)8-27-15-19-20-16(29-15)28-9-14(23)18-11-5-4-10(26-2)7-12(11)21(24)25/h4-5,7H,3,6,8-9H2,1-2H3,(H,17,22)(H,18,23)

> <PUBCHEM_IUPAC_INCHIKEY>
VNLLHCOUXJPZMM-UHFFFAOYSA-N

> <PUBCHEM_XLOGP3>
3.2

> <PUBCHEM_EXACT_MASS>
457.054832

> <PUBCHEM_MOLECULAR_FORMULA>
C16H19N5O5S3

> <PUBCHEM_MOLECULAR_WEIGHT>
457.54756

> <PUBCHEM_OPENEYE_CAN_SMILES>
CCCNC(=O)CSC1=NN=C(S1)SCC(=O)NC2=C(C=C(C=C2)OC)[N+](=O)[O-]

> <PUBCHEM_OPENEYE_ISO_SMILES>
CCCNC(=O)CSC1=NN=C(S1)SCC(=O)NC2=C(C=C(C=C2)OC)[N+](=O)[O-]

> <PUBCHEM_CACTVS_TPSA>
218

> <PUBCHEM_MONOISOTOPIC_WEIGHT>
457.054832

> <PUBCHEM_TOTAL_CHARGE>
0

> <PUBCHEM_HEAVY_ATOM_COUNT>
29

> <PUBCHEM_ATOM_DEF_STEREO_COUNT>
0

> <PUBCHEM_ATOM_UDEF_STEREO_COUNT>
0

> <PUBCHEM_BOND_DEF_STEREO_COUNT>
0

> <PUBCHEM_BOND_UDEF_STEREO_COUNT>
0

> <PUBCHEM_ISOTOPIC_ATOM_COUNT>
0

> <PUBCHEM_COMPONENT_COUNT>
1

> <PUBCHEM_CACTVS_TAUTO_COUNT>
4

> <PUBCHEM_COORDINATE_TYPE>
1
5
255

> <PUBCHEM_BONDANNOTATIONS>
12  13  8
12  27  8
13  28  8
16  17  8
16  19  8
17  20  8
19  22  8
20  21  8
21  22  8
3  27  8
3  28  8

$$$$
31669422
  -OEChem-12041211432D

 36 37  0     0  0  0  0  0  0999 V2000
    7.1962   -1.9050    0.0000 S   0  0  0  0  0  0  0  0  0  0  0  0
    8.0622    2.5950    0.0000 S   0  0  0  0  0  0  0  0  0  0  0  0
    2.0000   -2.9050    0.0000 F   0  0  0  0  0  0  0  0  0  0  0  0
    2.3660   -1.5390    0.0000 F   0  0  0  0  0  0  0  0  0  0  0  0
    3.3660   -3.2710    0.0000 F   0  0  0  0  0  0  0  0  0  0  0  0
    7.6962   -2.7710    0.0000 O   0  0  0  0  0  0  0  0  0  0  0  0
    6.6962   -1.0390    0.0000 O   0  0  0  0  0  0  0  0  0  0  0  0
    3.7320   -1.9050    0.0000 O   0  0  0  0  0  0  0  0  0  0  0  0
    9.0622    2.5950    0.0000 O   0  0  0  0  0  0  0  0  0  0  0  0
    7.0622    2.5950    0.0000 O   0  0  0  0  0  0  0  0  0  0  0  0
    8.0622   -1.4050    0.0000 N   0  0  0  0  0  0  0  0  0  0  0  0
    8.0622    3.5950    0.0000 N   0  0  0  0  0  0  0  0  0  0  0  0
    6.3301   -2.4050    0.0000 C   0  0  0  0  0  0  0  0  0  0  0  0
    8.0622   -0.4050    0.0000 C   0  0  0  0  0  0  0  0  0  0  0  0
    8.0622    1.5950    0.0000 C   0  0  0  0  0  0  0  0  0  0  0  0
    8.9282    0.0950    0.0000 C   0  0  0  0  0  0  0  0  0  0  0  0
    7.1962    0.0950    0.0000 C   0  0  0  0  0  0  0  0  0  0  0  0
    5.4641   -1.9050    0.0000 C   0  0  0  0  0  0  0  0  0  0  0  0
    8.9282    1.0950    0.0000 C   0  0  0  0  0  0  0  0  0  0  0  0
    7.1962    1.0950    0.0000 C   0  0  0  0  0  0  0  0  0  0  0  0
    6.3301   -3.4050    0.0000 C   0  0  0  0  0  0  0  0  0  0  0  0
    4.5981   -2.4050    0.0000 C   0  0  0  0  0  0  0  0  0  0  0  0
    5.4641   -3.9050    0.0000 C   0  0  0  0  0  0  0  0  0  0  0  0
    4.5981   -3.4050    0.0000 C   0  0  0  0  0  0  0  0  0  0  0  0
    2.8660   -2.4050    0.0000 C   0  0  0  0  0  0  0  0  0  0  0  0
    8.5991   -1.7150    0.0000 H   0  0  0  0  0  0  0  0  0  0  0  0
    9.4651   -0.2150    0.0000 H   0  0  0  0  0  0  0  0  0  0  0  0
    6.6592   -0.2150    0.0000 H   0  0  0  0  0  0  0  0  0  0  0  0
    5.4641   -1.2850    0.0000 H   0  0  0  0  0  0  0  0  0  0  0  0
    9.4651    1.4050    0.0000 H   0  0  0  0  0  0  0  0  0  0  0  0
    6.6592    1.4050    0.0000 H   0  0  0  0  0  0  0  0  0  0  0  0
    6.8671   -3.7150    0.0000 H   0  0  0  0  0  0  0  0  0  0  0  0
    5.4641   -4.5250    0.0000 H   0  0  0  0  0  0  0  0  0  0  0  0
    4.0611   -3.7150    0.0000 H   0  0  0  0  0  0  0  0  0  0  0  0
    8.5991    3.9050    0.0000 H   0  0  0  0  0  0  0  0  0  0  0  0
    7.5252    3.9050    0.0000 H   0  0  0  0  0  0  0  0  0  0  0  0
  1  6  2  0  0  0  0
  1  7  2  0  0  0  0
  1 11  1  0  0  0  0
  1 13  1  0  0  0  0
  2  9  2  0  0  0  0
  2 10  2  0  0  0  0
  2 12  1  0  0  0  0
  2 15  1  0  0  0  0
  3 25  1  0  0  0  0
  4 25  1  0  0  0  0
  5 25  1  0  0  0  0
  8 22  1  0  0  0  0
  8 25  1  0  0  0  0
 11 14  1  0  0  0  0
 11 26  1  0  0  0  0
 12 35  1  0  0  0  0
 12 36  1  0  0  0  0
 13 18  1  0  0  0  0
 13 21  2  0  0  0  0
 14 16  2  0  0  0  0
 14 17  1  0  0  0  0
 15 19  2  0  0  0  0
 15 20  1  0  0  0  0
 16 19  1  0  0  0  0
 16 27  1  0  0  0  0
 17 20  2  0  0  0  0
 17 28  1  0  0  0  0
 18 22  2  0  0  0  0
 18 29  1  0  0  0  0
 19 30  1  0  0  0  0
 20 31  1  0  0  0  0
 21 23  1  0  0  0  0
 21 32  1  0  0  0  0
 22 24  1  0  0  0  0
 23 24  2  0  0  0  0
 23 33  1  0  0  0  0
 24 34  1  0  0  0  0
M  END
> <PUBCHEM_COMPOUND_CID>
31669422

> <PUBCHEM_COMPOUND_CANONICALIZED>
1

> <PUBCHEM_CACTVS_COMPLEXITY>
647

> <PUBCHEM_CACTVS_HBOND_ACCEPTOR>
10

> <PUBCHEM_CACTVS_HBOND_DONOR>
2

> <PUBCHEM_CACTVS_ROTATABLE_BOND>
5

> <PUBCHEM_CACTVS_SUBSKEYS>
AAADccBzOYBgAAAAAAAAAAAAAAAAAAAAAAAwYAAAAAAAAAABQAAAHwQQQAAACAyB0BAwx4BABAKAACRCQHDCCBAgIgAIiBgGbIgMJiKEsZuAMCBk0BEI6AeQQAAAAAQABAAAAAAACAAIAAAAAAAAAAAAAA==

> <PUBCHEM_IUPAC_OPENEYE_NAME>
N-(4-sulfamoylphenyl)-3-(trifluoromethoxy)benzenesulfonamide

> <PUBCHEM_IUPAC_CAS_NAME>
N-(4-sulfamoylphenyl)-3-(trifluoromethoxy)benzenesulfonamide

> <PUBCHEM_IUPAC_NAME>
N-(4-sulfamoylphenyl)-3-(trifluoromethoxy)benzenesulfonamide

> <PUBCHEM_IUPAC_SYSTEMATIC_NAME>
N-(4-sulfamoylphenyl)-3-(trifluoromethyloxy)benzenesulfonamide

> <PUBCHEM_IUPAC_TRADITIONAL_NAME>
N-(4-sulfamoylphenyl)-3-(trifluoromethoxy)benzenesulfonamide

> <PUBCHEM_IUPAC_INCHI>
InChI=1S/C13H11F3N2O5S2/c14-13(15,16)23-10-2-1-3-12(8-10)25(21,22)18-9-4-6-11(7-5-9)24(17,19)20/h1-8,18H,(H2,17,19,20)

> <PUBCHEM_IUPAC_INCHIKEY>
WOPTYBBNAZPECX-UHFFFAOYSA-N

> <PUBCHEM_XLOGP3>
2

> <PUBCHEM_EXACT_MASS>
396.006148

> <PUBCHEM_MOLECULAR_FORMULA>
C13H11F3N2O5S2

> <PUBCHEM_MOLECULAR_WEIGHT>
396.36205

> <PUBCHEM_OPENEYE_CAN_SMILES>
C1=CC(=CC(=C1)S(=O)(=O)NC2=CC=C(C=C2)S(=O)(=O)N)OC(F)(F)F

> <PUBCHEM_OPENEYE_ISO_SMILES>
C1=CC(=CC(=C1)S(=O)(=O)NC2=CC=C(C=C2)S(=O)(=O)N)OC(F)(F)F

> <PUBCHEM_CACTVS_TPSA>
132

> <PUBCHEM_MONOISOTOPIC_WEIGHT>
396.006148

> <PUBCHEM_TOTAL_CHARGE>
0

> <PUBCHEM_HEAVY_ATOM_COUNT>
25

> <PUBCHEM_ATOM_DEF_STEREO_COUNT>
0

> <PUBCHEM_ATOM_UDEF_STEREO_COUNT>
0

> <PUBCHEM_BOND_DEF_STEREO_COUNT>
0

> <PUBCHEM_BOND_UDEF_STEREO_COUNT>
0

> <PUBCHEM_ISOTOPIC_ATOM_COUNT>
0

> <PUBCHEM_COMPONENT_COUNT>
1

> <PUBCHEM_CACTVS_TAUTO_COUNT>
1

> <PUBCHEM_COORDINATE_TYPE>
1
5
255

> <PUBCHEM_BONDANNOTATIONS>
13  18  8
13  21  8
14  16  8
14  17  8
15  19  8
15  20  8
16  19  8
17  20  8
18  22  8
21  23  8
22  24  8
23  24  8

$$$$
