24031055
  -OEChem-11301217342D

 32 33  0     0  0  0  0  0  0999 V2000
    2.0000   -4.7500    0.0000 O   0  0  0  0  0  0  0  0  0  0  0  0
    3.7320    0.2500    0.0000 C   0  0  0  0  0  0  0  0  0  0  0  0
    3.7320   -1.7500    0.0000 C   0  0  0  0  0  0  0  0  0  0  0  0
    2.8660   -0.2500    0.0000 C   0  0  0  0  0  0  0  0  0  0  0  0
    4.5981   -0.2500    0.0000 C   0  0  0  0  0  0  0  0  0  0  0  0
    3.7320    1.2500    0.0000 C   0  0  0  0  0  0  0  0  0  0  0  0
    4.5981    2.7500    0.0000 C   0  0  0  0  0  0  0  0  0  0  0  0
    2.8660   -1.2500    0.0000 C   0  0  0  0  0  0  0  0  0  0  0  0
    4.5981   -1.2500    0.0000 C   0  0  0  0  0  0  0  0  0  0  0  0
    4.5981    1.7500    0.0000 C   0  0  0  0  0  0  0  0  0  0  0  0
    5.4641    3.2500    0.0000 C   0  0  0  0  0  0  0  0  0  0  0  0
    3.7320    3.2500    0.0000 C   0  0  0  0  0  0  0  0  0  0  0  0
    3.7320   -2.7500    0.0000 C   0  0  0  0  0  0  0  0  0  0  0  0
    5.4641    4.2500    0.0000 C   0  0  0  0  0  0  0  0  0  0  0  0
    3.7320    4.2500    0.0000 C   0  0  0  0  0  0  0  0  0  0  0  0
    4.5981    4.7500    0.0000 C   0  0  0  0  0  0  0  0  0  0  0  0
    2.8660   -3.2500    0.0000 C   0  0  0  0  0  0  0  0  0  0  0  0
    2.8660   -4.2500    0.0000 C   0  0  0  0  0  0  0  0  0  0  0  0
    2.3291    0.0600    0.0000 H   0  0  0  0  0  0  0  0  0  0  0  0
    5.1350    0.0600    0.0000 H   0  0  0  0  0  0  0  0  0  0  0  0
    3.1951    1.5600    0.0000 H   0  0  0  0  0  0  0  0  0  0  0  0
    2.3291   -1.5600    0.0000 H   0  0  0  0  0  0  0  0  0  0  0  0
    5.1350   -1.5600    0.0000 H   0  0  0  0  0  0  0  0  0  0  0  0
    5.1350    1.4400    0.0000 H   0  0  0  0  0  0  0  0  0  0  0  0
    6.0010    2.9400    0.0000 H   0  0  0  0  0  0  0  0  0  0  0  0
    3.1951    2.9400    0.0000 H   0  0  0  0  0  0  0  0  0  0  0  0
    4.2690   -3.0600    0.0000 H   0  0  0  0  0  0  0  0  0  0  0  0
    6.0010    4.5600    0.0000 H   0  0  0  0  0  0  0  0  0  0  0  0
    3.1951    4.5600    0.0000 H   0  0  0  0  0  0  0  0  0  0  0  0
    4.5981    5.3700    0.0000 H   0  0  0  0  0  0  0  0  0  0  0  0
    2.3291   -2.9400    0.0000 H   0  0  0  0  0  0  0  0  0  0  0  0
    3.4030   -4.5600    0.0000 H   0  0  0  0  0  0  0  0  0  0  0  0
  1 18  2  0  0  0  0
  2  4  2  0  0  0  0
  2  5  1  0  0  0  0
  2  6  1  0  0  0  0
  3  8  2  0  0  0  0
  3  9  1  0  0  0  0
  3 13  1  0  0  0  0
  4  8  1  0  0  0  0
  4 19  1  0  0  0  0
  5  9  2  0  0  0  0
  5 20  1  0  0  0  0
  6 10  2  0  0  0  0
  6 21  1  0  0  0  0
  7 10  1  0  0  0  0
  7 11  2  0  0  0  0
  7 12  1  0  0  0  0
  8 22  1  0  0  0  0
  9 23  1  0  0  0  0
 10 24  1  0  0  0  0
 11 14  1  0  0  0  0
 11 25  1  0  0  0  0
 12 15  2  0  0  0  0
 12 26  1  0  0  0  0
 13 17  2  0  0  0  0
 13 27  1  0  0  0  0
 14 16  2  0  0  0  0
 14 28  1  0  0  0  0
 15 16  1  0  0  0  0
 15 29  1  0  0  0  0
 16 30  1  0  0  0  0
 17 18  1  0  0  0  0
 17 31  1  0  0  0  0
 18 32  1  0  0  0  0
M  END
> <PUBCHEM_COMPOUND_CID>
24031055

> <PUBCHEM_COMPOUND_CANONICALIZED>
1

> <PUBCHEM_CACTVS_COMPLEXITY>
289

> <PUBCHEM_CACTVS_HBOND_ACCEPTOR>
1

> <PUBCHEM_CACTVS_HBOND_DONOR>
0

> <PUBCHEM_CACTVS_ROTATABLE_BOND>
4

> <PUBCHEM_CACTVS_SUBSKEYS>
AAADccB4IAAAAAAAAAAAAAAAAAAAAAAAAAAwYAAAAAAAAAABQAAAGgAAAAAADACgmAIwAIAAAACIAihSgAACAAAgAAAIiAAAAMgIICKAERCAIAAggAAIiYcAgAAOQAAAAAAAAACAAAAAAAAAAAAAAAAAAA==

> <PUBCHEM_IUPAC_OPENEYE_NAME>
(E)-3-[4-[(E)-styryl]phenyl]prop-2-enal

> <PUBCHEM_IUPAC_CAS_NAME>
(E)-3-[4-[(E)-2-phenylethenyl]phenyl]-2-propenal

> <PUBCHEM_IUPAC_NAME>
(E)-3-[4-[(E)-2-phenylethenyl]phenyl]prop-2-enal

> <PUBCHEM_IUPAC_SYSTEMATIC_NAME>
(E)-3-[4-[(E)-2-phenylethenyl]phenyl]prop-2-enal

> <PUBCHEM_IUPAC_TRADITIONAL_NAME>
(E)-3-[4-[(E)-styryl]phenyl]acrolein

> <PUBCHEM_IUPAC_INCHI>
InChI=1S/C17H14O/c18-14-4-7-16-9-12-17(13-10-16)11-8-15-5-2-1-3-6-15/h1-14H/b7-4+,11-8+

> <PUBCHEM_IUPAC_INCHIKEY>
BVUBUZIAMHELRM-VCABWLAWSA-N

> <PUBCHEM_XLOGP3>
4.2

> <PUBCHEM_EXACT_MASS>
234.104465

> <PUBCHEM_MOLECULAR_FORMULA>
C17H14O

> <PUBCHEM_MOLECULAR_WEIGHT>
234.29246

> <PUBCHEM_OPENEYE_CAN_SMILES>
C1=CC=C(C=C1)C=CC2=CC=C(C=C2)C=CC=O

> <PUBCHEM_OPENEYE_ISO_SMILES>
C1=CC=C(C=C1)/C=C/C2=CC=C(C=C2)/C=C/C=O

> <PUBCHEM_CACTVS_TPSA>
17.1

> <PUBCHEM_MONOISOTOPIC_WEIGHT>
234.104465

> <PUBCHEM_TOTAL_CHARGE>
0

> <PUBCHEM_HEAVY_ATOM_COUNT>
18

> <PUBCHEM_ATOM_DEF_STEREO_COUNT>
0

> <PUBCHEM_ATOM_UDEF_STEREO_COUNT>
0

> <PUBCHEM_BOND_DEF_STEREO_COUNT>
2

> <PUBCHEM_BOND_UDEF_STEREO_COUNT>
0

> <PUBCHEM_ISOTOPIC_ATOM_COUNT>
0

> <PUBCHEM_COMPONENT_COUNT>
1

> <PUBCHEM_CACTVS_TAUTO_COUNT>
1

> <PUBCHEM_COORDINATE_TYPE>
1
5
255

> <PUBCHEM_BONDANNOTATIONS>
11  14  8
12  15  8
14  16  8
15  16  8
2  4  8
2  5  8
3  8  8
3  9  8
4  8  8
5  9  8
7  11  8
7  12  8

$$$$
24039377
  -OEChem-11301217352D

 31 33  0     1  0  0  0  0  0999 V2000
    5.9405    0.8252    0.0000 O   0  0  0  0  0  0  0  0  0  0  0  0
    3.4026    1.3296    0.0000 O   0  0  0  0  0  0  0  0  0  0  0  0
    4.6844    3.0874    0.0000 O   0  0  0  0  0  0  0  0  0  0  0  0
    6.7523    2.4116    0.0000 O   0  0  0  0  0  0  0  0  0  0  0  0
    8.4752    2.5896    0.0000 O   0  5  0  0  0  0  0  0  0  0  0  0
    7.7679    1.0085    0.0000 O   0  0  0  0  0  0  0  0  0  0  0  0
    4.6783   -0.4327    0.0000 N   0  0  0  0  0  0  0  0  0  0  0  0
    4.6783   -2.0422    0.0000 N   0  0  0  0  0  0  0  0  0  0  0  0
    2.8660   -0.2375    0.0000 N   0  0  0  0  0  0  0  0  0  0  0  0
    7.6651    2.0032    0.0000 N   0  3  0  0  0  0  0  0  0  0  0  0
    2.0000   -1.7374    0.0000 N   0  0  0  0  0  0  0  0  0  0  0  0
    2.8660   -3.2374    0.0000 N   0  0  0  0  0  0  0  0  0  0  0  0
    4.9889    0.5178    0.0000 C   0  0  1  0  0  0  0  0  0  0  0  0
    4.4026    1.3278    0.0000 C   0  0  1  0  0  0  0  0  0  0  0  0
    4.9917    2.1358    0.0000 C   0  0  1  0  0  0  0  0  0  0  0  0
    5.9422    1.8252    0.0000 C   0  0  2  0  0  0  0  0  0  0  0  0
    3.7320   -0.7375    0.0000 C   0  0  0  0  0  0  0  0  0  0  0  0
    5.2619   -1.2374    0.0000 C   0  0  0  0  0  0  0  0  0  0  0  0
    3.7320   -1.7374    0.0000 C   0  0  0  0  0  0  0  0  0  0  0  0
    2.8660   -2.2374    0.0000 C   0  0  0  0  0  0  0  0  0  0  0  0
    2.0000   -0.7375    0.0000 C   0  0  0  0  0  0  0  0  0  0  0  0
    5.4266    0.0786    0.0000 H   0  0  0  0  0  0  0  0  0  0  0  0
    4.1220    1.8807    0.0000 H   0  0  0  0  0  0  0  0  0  0  0  0
    5.4309    2.5735    0.0000 H   0  0  0  0  0  0  0  0  0  0  0  0
    5.8463    2.4377    0.0000 H   0  0  0  0  0  0  0  0  0  0  0  0
    5.8819   -1.2374    0.0000 H   0  0  0  0  0  0  0  0  0  0  0  0
    3.0935    1.8670    0.0000 H   0  0  0  0  0  0  0  0  0  0  0  0
    5.1000    3.5474    0.0000 H   0  0  0  0  0  0  0  0  0  0  0  0
    1.4631   -0.4275    0.0000 H   0  0  0  0  0  0  0  0  0  0  0  0
    2.3291   -3.5474    0.0000 H   0  0  0  0  0  0  0  0  0  0  0  0
    3.4030   -3.5474    0.0000 H   0  0  0  0  0  0  0  0  0  0  0  0
  1 13  1  0  0  0  0
  1 16  1  0  0  0  0
 14  2  1  6  0  0  0
  2 27  1  0  0  0  0
 15  3  1  6  0  0  0
  3 28  1  0  0  0  0
  4 10  1  0  0  0  0
 16  4  1  1  0  0  0
  5 10  1  0  0  0  0
  6 10  2  0  0  0  0
 13  7  1  1  0  0  0
  7 17  1  0  0  0  0
  7 18  1  0  0  0  0
  8 18  2  0  0  0  0
  8 19  1  0  0  0  0
  9 17  2  0  0  0  0
  9 21  1  0  0  0  0
 11 20  1  0  0  0  0
 11 21  2  0  0  0  0
 12 20  1  0  0  0  0
 12 30  1  0  0  0  0
 12 31  1  0  0  0  0
 13 14  1  0  0  0  0
 13 22  1  0  0  0  0
 14 15  1  0  0  0  0
 14 23  1  0  0  0  0
 15 16  1  0  0  0  0
 15 24  1  0  0  0  0
 16 25  1  0  0  0  0
 17 19  1  0  0  0  0
 18 26  1  0  0  0  0
 19 20  2  0  0  0  0
 21 29  1  0  0  0  0
M  CHG  2   5  -1  10   1
M  END
> <PUBCHEM_COMPOUND_CID>
24039377

> <PUBCHEM_COMPOUND_CANONICALIZED>
1

> <PUBCHEM_CACTVS_COMPLEXITY>
409

> <PUBCHEM_CACTVS_HBOND_ACCEPTOR>
10

> <PUBCHEM_CACTVS_HBOND_DONOR>
3

> <PUBCHEM_CACTVS_ROTATABLE_BOND>
2

> <PUBCHEM_CACTVS_SUBSKEYS>
AAADccBzuAAAAAAAAAAAAAAAAAAAAWJAAAAsAAAAAAAAAFgB+AAAHgAUCAAACBzxlwcF+L9MVgChAQZhZQCAgC0REKABUCAoVBCTWABAyEAeRAgPAALXACBgAAAAAAAAAAAAAAAAAAAAAAAAAAAAAAAAAA==

> <PUBCHEM_IUPAC_OPENEYE_NAME>
[(2R,3S,4R,5R)-5-(6-aminopurin-9-yl)-3,4-dihydroxy-tetrahydrofuran-2-yl] nitrate

> <PUBCHEM_IUPAC_CAS_NAME>
nitric acid [(2R,3S,4R,5R)-5-(6-aminopurin-9-yl)-3,4-dihydroxy-2-oxolanyl] ester

> <PUBCHEM_IUPAC_NAME>
[(2R,3S,4R,5R)-5-(6-aminopurin-9-yl)-3,4-dihydroxyoxolan-2-yl] nitrate

> <PUBCHEM_IUPAC_SYSTEMATIC_NAME>
[(2R,3S,4R,5R)-5-(6-aminopurin-9-yl)-3,4-bis(oxidanyl)oxolan-2-yl] nitrate

> <PUBCHEM_IUPAC_TRADITIONAL_NAME>
nitric acid [(2R,3S,4R,5R)-5-adenin-9-yl-3,4-dihydroxy-tetrahydrofuran-2-yl] ester

> <PUBCHEM_IUPAC_INCHI>
InChI=1S/C9H10N6O6/c10-6-3-7(12-1-11-6)14(2-13-3)8-4(16)5(17)9(20-8)21-15(18)19/h1-2,4-5,8-9,16-17H,(H2,10,11,12)/t4-,5+,8-,9-/m1/s1

> <PUBCHEM_IUPAC_INCHIKEY>
ZROONDGNRJUDAT-NFNBNWGISA-N

> <PUBCHEM_XLOGP3>
-0.5

> <PUBCHEM_EXACT_MASS>
298.066182

> <PUBCHEM_MOLECULAR_FORMULA>
C9H10N6O6

> <PUBCHEM_MOLECULAR_WEIGHT>
298.2123

> <PUBCHEM_OPENEYE_CAN_SMILES>
C1=NC2=C(C(=N1)N)N=CN2C3C(C(C(O3)O[N+](=O)[O-])O)O

> <PUBCHEM_OPENEYE_ISO_SMILES>
C1=NC2=C(C(=N1)N)N=CN2[C@H]3[C@@H]([C@@H]([C@H](O3)O[N+](=O)[O-])O)O

> <PUBCHEM_CACTVS_TPSA>
174

> <PUBCHEM_MONOISOTOPIC_WEIGHT>
298.066182

> <PUBCHEM_TOTAL_CHARGE>
0

> <PUBCHEM_HEAVY_ATOM_COUNT>
21

> <PUBCHEM_ATOM_DEF_STEREO_COUNT>
4

> <PUBCHEM_ATOM_UDEF_STEREO_COUNT>
0

> <PUBCHEM_BOND_DEF_STEREO_COUNT>
0

> <PUBCHEM_BOND_UDEF_STEREO_COUNT>
0

> <PUBCHEM_ISOTOPIC_ATOM_COUNT>
0

> <PUBCHEM_COMPONENT_COUNT>
1

> <PUBCHEM_CACTVS_TAUTO_COUNT>
3

> <PUBCHEM_COORDINATE_TYPE>
1
5
255

> <PUBCHEM_BONDANNOTATIONS>
11  20  8
11  21  8
17  19  8
19  20  8
14  2  6
15  3  6
16  4  5
13  7  5
7  17  8
7  18  8
8  18  8
8  19  8
9  17  8
9  21  8

$$$$
24042617
  -OEChem-11301217352D

 41 42  0     0  0  0  0  0  0999 V2000
    6.3301   -0.2500    0.0000 O   0  0  0  0  0  0  0  0  0  0  0  0
    4.5981   -0.2500    0.0000 N   0  0  0  0  0  0  0  0  0  0  0  0
    6.3301    1.7500    0.0000 C   0  0  0  0  0  0  0  0  0  0  0  0
    7.1962    1.2500    0.0000 C   0  0  0  0  0  0  0  0  0  0  0  0
    6.3301    2.7500    0.0000 C   0  0  0  0  0  0  0  0  0  0  0  0
    8.0622    1.7500    0.0000 C   0  0  0  0  0  0  0  0  0  0  0  0
    7.1962    3.2500    0.0000 C   0  0  0  0  0  0  0  0  0  0  0  0
    8.0622    2.7500    0.0000 C   0  0  0  0  0  0  0  0  0  0  0  0
    5.4641    1.2500    0.0000 C   0  0  0  0  0  0  0  0  0  0  0  0
    5.4641    0.2500    0.0000 C   0  0  0  0  0  0  0  0  0  0  0  0
    4.5981   -1.2500    0.0000 C   0  0  0  0  0  0  0  0  0  0  0  0
    3.7320   -1.7500    0.0000 C   0  0  0  0  0  0  0  0  0  0  0  0
    2.8660   -1.2500    0.0000 C   0  0  0  0  0  0  0  0  0  0  0  0
    5.4641   -1.7500    0.0000 C   0  0  0  0  0  0  0  0  0  0  0  0
    3.7320   -2.7500    0.0000 C   0  0  0  0  0  0  0  0  0  0  0  0
    5.4641   -2.7500    0.0000 C   0  0  0  0  0  0  0  0  0  0  0  0
    4.5981   -3.2500    0.0000 C   0  0  0  0  0  0  0  0  0  0  0  0
    2.0000   -1.7500    0.0000 C   0  0  0  0  0  0  0  0  0  0  0  0
    5.7932    2.0600    0.0000 H   0  0  0  0  0  0  0  0  0  0  0  0
    6.7976    0.7751    0.0000 H   0  0  0  0  0  0  0  0  0  0  0  0
    7.5947    0.7751    0.0000 H   0  0  0  0  0  0  0  0  0  0  0  0
    6.1181    3.3326    0.0000 H   0  0  0  0  0  0  0  0  0  0  0  0
    5.7196    2.6423    0.0000 H   0  0  0  0  0  0  0  0  0  0  0  0
    8.2742    1.1674    0.0000 H   0  0  0  0  0  0  0  0  0  0  0  0
    8.6728    1.8577    0.0000 H   0  0  0  0  0  0  0  0  0  0  0  0
    7.5947    3.7250    0.0000 H   0  0  0  0  0  0  0  0  0  0  0  0
    6.7976    3.7250    0.0000 H   0  0  0  0  0  0  0  0  0  0  0  0
    8.6728    2.6423    0.0000 H   0  0  0  0  0  0  0  0  0  0  0  0
    8.2742    3.3326    0.0000 H   0  0  0  0  0  0  0  0  0  0  0  0
    5.2520    1.8326    0.0000 H   0  0  0  0  0  0  0  0  0  0  0  0
    4.8535    1.1423    0.0000 H   0  0  0  0  0  0  0  0  0  0  0  0
    4.0611    0.0600    0.0000 H   0  0  0  0  0  0  0  0  0  0  0  0
    3.2646   -0.7751    0.0000 H   0  0  0  0  0  0  0  0  0  0  0  0
    2.4675   -0.7751    0.0000 H   0  0  0  0  0  0  0  0  0  0  0  0
    6.0010   -1.4400    0.0000 H   0  0  0  0  0  0  0  0  0  0  0  0
    3.1951   -3.0600    0.0000 H   0  0  0  0  0  0  0  0  0  0  0  0
    6.0010   -3.0600    0.0000 H   0  0  0  0  0  0  0  0  0  0  0  0
    4.5981   -3.8700    0.0000 H   0  0  0  0  0  0  0  0  0  0  0  0
    1.6900   -1.2131    0.0000 H   0  0  0  0  0  0  0  0  0  0  0  0
    1.4631   -2.0600    0.0000 H   0  0  0  0  0  0  0  0  0  0  0  0
    2.3100   -2.2869    0.0000 H   0  0  0  0  0  0  0  0  0  0  0  0
  1 10  2  0  0  0  0
  2 10  1  0  0  0  0
  2 11  1  0  0  0  0
  2 32  1  0  0  0  0
  3  4  1  0  0  0  0
  3  5  1  0  0  0  0
  3  9  1  0  0  0  0
  3 19  1  0  0  0  0
  4  6  1  0  0  0  0
  4 20  1  0  0  0  0
  4 21  1  0  0  0  0
  5  7  1  0  0  0  0
  5 22  1  0  0  0  0
  5 23  1  0  0  0  0
  6  8  1  0  0  0  0
  6 24  1  0  0  0  0
  6 25  1  0  0  0  0
  7  8  1  0  0  0  0
  7 26  1  0  0  0  0
  7 27  1  0  0  0  0
  8 28  1  0  0  0  0
  8 29  1  0  0  0  0
  9 10  1  0  0  0  0
  9 30  1  0  0  0  0
  9 31  1  0  0  0  0
 11 12  1  0  0  0  0
 11 14  2  0  0  0  0
 12 13  1  0  0  0  0
 12 15  2  0  0  0  0
 13 18  1  0  0  0  0
 13 33  1  0  0  0  0
 13 34  1  0  0  0  0
 14 16  1  0  0  0  0
 14 35  1  0  0  0  0
 15 17  1  0  0  0  0
 15 36  1  0  0  0  0
 16 17  2  0  0  0  0
 16 37  1  0  0  0  0
 17 38  1  0  0  0  0
 18 39  1  0  0  0  0
 18 40  1  0  0  0  0
 18 41  1  0  0  0  0
M  END
> <PUBCHEM_COMPOUND_CID>
24042617

> <PUBCHEM_COMPOUND_CANONICALIZED>
1

> <PUBCHEM_CACTVS_COMPLEXITY>
258

> <PUBCHEM_CACTVS_HBOND_ACCEPTOR>
1

> <PUBCHEM_CACTVS_HBOND_DONOR>
1

> <PUBCHEM_CACTVS_ROTATABLE_BOND>
4

> <PUBCHEM_CACTVS_SUBSKEYS>
AAADceB6IAAAAAAAAAAAAAAAAAAAAAAAAAAwYAAAAAAAAAABAAAAHgAQAAAADQiBmAAywILAAACIAiVSUACCAAAhAgAIiAEAZIgIIDLAkZGEIAhglADIyAcYiICOAAAAAAACAAAAAAAAAAQAAAAAAAAAAA==

> <PUBCHEM_IUPAC_OPENEYE_NAME>
2-cyclohexyl-N-(2-ethylphenyl)acetamide

> <PUBCHEM_IUPAC_CAS_NAME>
2-cyclohexyl-N-(2-ethylphenyl)acetamide

> <PUBCHEM_IUPAC_NAME>
2-cyclohexyl-N-(2-ethylphenyl)acetamide

> <PUBCHEM_IUPAC_SYSTEMATIC_NAME>
2-cyclohexyl-N-(2-ethylphenyl)ethanamide

> <PUBCHEM_IUPAC_TRADITIONAL_NAME>
2-cyclohexyl-N-(2-ethylphenyl)acetamide

> <PUBCHEM_IUPAC_INCHI>
InChI=1S/C16H23NO/c1-2-14-10-6-7-11-15(14)17-16(18)12-13-8-4-3-5-9-13/h6-7,10-11,13H,2-5,8-9,12H2,1H3,(H,17,18)

> <PUBCHEM_IUPAC_INCHIKEY>
IXKDXWKIKNUVKT-UHFFFAOYSA-N

> <PUBCHEM_XLOGP3>
4

> <PUBCHEM_EXACT_MASS>
245.177964

> <PUBCHEM_MOLECULAR_FORMULA>
C16H23NO

> <PUBCHEM_MOLECULAR_WEIGHT>
245.35992

> <PUBCHEM_OPENEYE_CAN_SMILES>
CCC1=CC=CC=C1NC(=O)CC2CCCCC2

> <PUBCHEM_OPENEYE_ISO_SMILES>
CCC1=CC=CC=C1NC(=O)CC2CCCCC2

> <PUBCHEM_CACTVS_TPSA>
29.1

> <PUBCHEM_MONOISOTOPIC_WEIGHT>
245.177964

> <PUBCHEM_TOTAL_CHARGE>
0

> <PUBCHEM_HEAVY_ATOM_COUNT>
18

> <PUBCHEM_ATOM_DEF_STEREO_COUNT>
0

> <PUBCHEM_ATOM_UDEF_STEREO_COUNT>
0

> <PUBCHEM_BOND_DEF_STEREO_COUNT>
0

> <PUBCHEM_BOND_UDEF_STEREO_COUNT>
0

> <PUBCHEM_ISOTOPIC_ATOM_COUNT>
0

> <PUBCHEM_COMPONENT_COUNT>
1

> <PUBCHEM_CACTVS_TAUTO_COUNT>
3

> <PUBCHEM_COORDINATE_TYPE>
1
5
255

> <PUBCHEM_BONDANNOTATIONS>
11  12  8
11  14  8
12  15  8
14  16  8
15  17  8
16  17  8

$$$$
24049284
  -OEChem-11301217362D

 58 59  0     1  0  0  0  0  0999 V2000
    6.3301   -0.2500    0.0000 O   0  0  0  0  0  0  0  0  0  0  0  0
    5.4641    2.2500    0.0000 O   0  0  0  0  0  0  0  0  0  0  0  0
    3.7320    1.2500    0.0000 O   0  0  0  0  0  0  0  0  0  0  0  0
    3.7320   -0.7500    0.0000 O   0  0  0  0  0  0  0  0  0  0  0  0
    6.3301   -2.2500    0.0000 O   0  0  0  0  0  0  0  0  0  0  0  0
    3.7320    2.2500    0.0000 O   0  0  0  0  0  0  0  0  0  0  0  0
    2.8660   -0.2500    0.0000 O   0  0  0  0  0  0  0  0  0  0  0  0
    4.5981   -2.2500    0.0000 O   0  0  0  0  0  0  0  0  0  0  0  0
    5.4641   -3.7500    0.0000 O   0  0  0  0  0  0  0  0  0  0  0  0
    7.1962    1.2500    0.0000 N   0  0  0  0  0  0  0  0  0  0  0  0
    6.3301    0.7500    0.0000 C   0  0  2  0  0  0  0  0  0  0  0  0
    5.4641    1.2500    0.0000 C   0  0  2  0  0  0  0  0  0  0  0  0
    4.5981    0.7500    0.0000 C   0  0  1  0  0  0  0  0  0  0  0  0
    4.5981   -0.2500    0.0000 C   0  0  2  0  0  0  0  0  0  0  0  0
    5.4641   -0.7500    0.0000 C   0  0  2  0  0  0  0  0  0  0  0  0
    8.0622    0.7500    0.0000 C   0  0  0  0  0  0  0  0  0  0  0  0
    7.1962    2.2500    0.0000 C   0  0  0  0  0  0  0  0  0  0  0  0
    8.0622    2.7500    0.0000 C   0  0  0  0  0  0  0  0  0  0  0  0
    8.9282    1.2500    0.0000 C   0  0  0  0  0  0  0  0  0  0  0  0
    8.9282    2.2500    0.0000 C   0  0  0  0  0  0  0  0  0  0  0  0
    5.4641   -1.7500    0.0000 C   0  0  0  0  0  0  0  0  0  0  0  0
    4.5981    2.7500    0.0000 C   0  0  0  0  0  0  0  0  0  0  0  0
    2.8660    0.7500    0.0000 C   0  0  0  0  0  0  0  0  0  0  0  0
    3.7320   -1.7500    0.0000 C   0  0  0  0  0  0  0  0  0  0  0  0
    4.5981    3.7500    0.0000 C   0  0  0  0  0  0  0  0  0  0  0  0
    2.0000    1.2500    0.0000 C   0  0  0  0  0  0  0  0  0  0  0  0
    6.3301   -3.2500    0.0000 C   0  0  0  0  0  0  0  0  0  0  0  0
    2.8660   -2.2500    0.0000 C   0  0  0  0  0  0  0  0  0  0  0  0
    7.1962   -3.7500    0.0000 C   0  0  0  0  0  0  0  0  0  0  0  0
    6.8671    0.4400    0.0000 H   0  0  0  0  0  0  0  0  0  0  0  0
    6.0010    1.5600    0.0000 H   0  0  0  0  0  0  0  0  0  0  0  0
    4.5981    1.3700    0.0000 H   0  0  0  0  0  0  0  0  0  0  0  0
    4.5981   -0.8700    0.0000 H   0  0  0  0  0  0  0  0  0  0  0  0
    6.0010   -1.0600    0.0000 H   0  0  0  0  0  0  0  0  0  0  0  0
    7.6636    0.2751    0.0000 H   0  0  0  0  0  0  0  0  0  0  0  0
    8.4607    0.2751    0.0000 H   0  0  0  0  0  0  0  0  0  0  0  0
    6.9841    2.8326    0.0000 H   0  0  0  0  0  0  0  0  0  0  0  0
    6.5856    2.1423    0.0000 H   0  0  0  0  0  0  0  0  0  0  0  0
    9.1403    0.6674    0.0000 H   0  0  0  0  0  0  0  0  0  0  0  0
    9.5388    1.3577    0.0000 H   0  0  0  0  0  0  0  0  0  0  0  0
    8.4607    3.2250    0.0000 H   0  0  0  0  0  0  0  0  0  0  0  0
    7.6636    3.2250    0.0000 H   0  0  0  0  0  0  0  0  0  0  0  0
    9.5388    2.1423    0.0000 H   0  0  0  0  0  0  0  0  0  0  0  0
    9.1403    2.8326    0.0000 H   0  0  0  0  0  0  0  0  0  0  0  0
    4.8535   -1.6423    0.0000 H   0  0  0  0  0  0  0  0  0  0  0  0
    5.2520   -2.3326    0.0000 H   0  0  0  0  0  0  0  0  0  0  0  0
    5.2181    3.7500    0.0000 H   0  0  0  0  0  0  0  0  0  0  0  0
    4.5981    4.3700    0.0000 H   0  0  0  0  0  0  0  0  0  0  0  0
    3.9781    3.7500    0.0000 H   0  0  0  0  0  0  0  0  0  0  0  0
    2.3100    1.7869    0.0000 H   0  0  0  0  0  0  0  0  0  0  0  0
    1.4631    1.5600    0.0000 H   0  0  0  0  0  0  0  0  0  0  0  0
    1.6900    0.7131    0.0000 H   0  0  0  0  0  0  0  0  0  0  0  0
    2.5560   -1.7131    0.0000 H   0  0  0  0  0  0  0  0  0  0  0  0
    2.3291   -2.5600    0.0000 H   0  0  0  0  0  0  0  0  0  0  0  0
    3.1760   -2.7869    0.0000 H   0  0  0  0  0  0  0  0  0  0  0  0
    6.8862   -4.2869    0.0000 H   0  0  0  0  0  0  0  0  0  0  0  0
    7.7331   -4.0600    0.0000 H   0  0  0  0  0  0  0  0  0  0  0  0
    7.5062   -3.2131    0.0000 H   0  0  0  0  0  0  0  0  0  0  0  0
  1 11  1  0  0  0  0
  1 15  1  0  0  0  0
 12  2  1  6  0  0  0
  2 22  1  0  0  0  0
 13  3  1  1  0  0  0
  3 23  1  0  0  0  0
 14  4  1  6  0  0  0
  4 24  1  0  0  0  0
  5 21  1  0  0  0  0
  5 27  1  0  0  0  0
  6 22  2  0  0  0  0
  7 23  2  0  0  0  0
  8 24  2  0  0  0  0
  9 27  2  0  0  0  0
 11 10  1  1  0  0  0
 10 16  1  0  0  0  0
 10 17  1  0  0  0  0
 11 12  1  0  0  0  0
 11 30  1  0  0  0  0
 12 13  1  0  0  0  0
 12 31  1  0  0  0  0
 13 14  1  0  0  0  0
 13 32  1  0  0  0  0
 14 15  1  0  0  0  0
 14 33  1  0  0  0  0
 15 21  1  1  0  0  0
 15 34  1  0  0  0  0
 16 19  1  0  0  0  0
 16 35  1  0  0  0  0
 16 36  1  0  0  0  0
 17 18  1  0  0  0  0
 17 37  1  0  0  0  0
 17 38  1  0  0  0  0
 18 20  1  0  0  0  0
 18 41  1  0  0  0  0
 18 42  1  0  0  0  0
 19 20  1  0  0  0  0
 19 39  1  0  0  0  0
 19 40  1  0  0  0  0
 20 43  1  0  0  0  0
 20 44  1  0  0  0  0
 21 45  1  0  0  0  0
 21 46  1  0  0  0  0
 22 25  1  0  0  0  0
 23 26  1  0  0  0  0
 24 28  1  0  0  0  0
 25 47  1  0  0  0  0
 25 48  1  0  0  0  0
 25 49  1  0  0  0  0
 26 50  1  0  0  0  0
 26 51  1  0  0  0  0
 26 52  1  0  0  0  0
 27 29  1  0  0  0  0
 28 53  1  0  0  0  0
 28 54  1  0  0  0  0
 28 55  1  0  0  0  0
 29 56  1  0  0  0  0
 29 57  1  0  0  0  0
 29 58  1  0  0  0  0
M  END
> <PUBCHEM_COMPOUND_CID>
24049284

> <PUBCHEM_COMPOUND_CANONICALIZED>
1

> <PUBCHEM_CACTVS_COMPLEXITY>
617

> <PUBCHEM_CACTVS_HBOND_ACCEPTOR>
10

> <PUBCHEM_CACTVS_HBOND_DONOR>
0

> <PUBCHEM_CACTVS_ROTATABLE_BOND>
10

> <PUBCHEM_CACTVS_SUBSKEYS>
AAADceB6PAAAAAAAAAAAAAAAAAAAAAAAAAAsSAAAAAAAAAAAAAAAHgAAAAAACBThgAYCCAMABAAIAACQCAAAAAAAAAAAAAAIAAADAAIAgAAPAAAHAACSAAHwcA4AAAAAAAAAAAAAAAAAAAAAAAAAAAAAAA==

> <PUBCHEM_IUPAC_OPENEYE_NAME>
[(2S,3S,4R,5S,6S)-3,4,5-triacetoxy-6-(1-piperidyl)tetrahydropyran-2-yl]methyl acetate

> <PUBCHEM_IUPAC_CAS_NAME>
acetic acid [(2S,3S,4R,5S,6S)-3,4,5-triacetyloxy-6-(1-piperidinyl)-2-oxanyl]methyl ester

> <PUBCHEM_IUPAC_NAME>
[(2S,3S,4R,5S,6S)-3,4,5-triacetyloxy-6-piperidin-1-yloxan-2-yl]methyl acetate

> <PUBCHEM_IUPAC_SYSTEMATIC_NAME>
[(2S,3S,4R,5S,6S)-3,4,5-triacetyloxy-6-piperidin-1-yl-oxan-2-yl]methyl ethanoate

> <PUBCHEM_IUPAC_TRADITIONAL_NAME>
acetic acid [(2S,3S,4R,5S,6S)-3,4,5-triacetoxy-6-piperidino-tetrahydropyran-2-yl]methyl ester

> <PUBCHEM_IUPAC_INCHI>
InChI=1S/C19H29NO9/c1-11(21)25-10-15-16(26-12(2)22)17(27-13(3)23)18(28-14(4)24)19(29-15)20-8-6-5-7-9-20/h15-19H,5-10H2,1-4H3/t15-,16-,17+,18-,19-/m0/s1

> <PUBCHEM_IUPAC_INCHIKEY>
JQKBJTNIQNEXEJ-OYSTVDSJSA-N

> <PUBCHEM_XLOGP3>
1.6

> <PUBCHEM_EXACT_MASS>
415.184232

> <PUBCHEM_MOLECULAR_FORMULA>
C19H29NO9

> <PUBCHEM_MOLECULAR_WEIGHT>
415.43486

> <PUBCHEM_OPENEYE_CAN_SMILES>
CC(=O)OCC1C(C(C(C(O1)N2CCCCC2)OC(=O)C)OC(=O)C)OC(=O)C

> <PUBCHEM_OPENEYE_ISO_SMILES>
CC(=O)OC[C@H]1[C@@H]([C@H]([C@@H]([C@H](O1)N2CCCCC2)OC(=O)C)OC(=O)C)OC(=O)C

> <PUBCHEM_CACTVS_TPSA>
118

> <PUBCHEM_MONOISOTOPIC_WEIGHT>
415.184232

> <PUBCHEM_TOTAL_CHARGE>
0

> <PUBCHEM_HEAVY_ATOM_COUNT>
29

> <PUBCHEM_ATOM_DEF_STEREO_COUNT>
5

> <PUBCHEM_ATOM_UDEF_STEREO_COUNT>
0

> <PUBCHEM_BOND_DEF_STEREO_COUNT>
0

> <PUBCHEM_BOND_UDEF_STEREO_COUNT>
0

> <PUBCHEM_ISOTOPIC_ATOM_COUNT>
0

> <PUBCHEM_COMPONENT_COUNT>
1

> <PUBCHEM_CACTVS_TAUTO_COUNT>
1

> <PUBCHEM_COORDINATE_TYPE>
1
5
255

> <PUBCHEM_BONDANNOTATIONS>
11  10  5
15  21  5
12  2  6
13  3  5
14  4  6

$$$$
24049443
  -OEChem-11301217362D

 43 44  0     0  0  0  0  0  0999 V2000
    5.4641   -1.0000    0.0000 S   0  0  0  0  0  0  0  0  0  0  0  0
    4.5981    0.5000    0.0000 N   0  0  0  0  0  0  0  0  0  0  0  0
    3.7320   -1.0000    0.0000 N   0  0  0  0  0  0  0  0  0  0  0  0
    5.4641    2.0000    0.0000 C   0  0  0  0  0  0  0  0  0  0  0  0
    6.3301    2.5000    0.0000 C   0  0  0  0  0  0  0  0  0  0  0  0
    4.5981    2.5000    0.0000 C   0  0  0  0  0  0  0  0  0  0  0  0
    6.3301    3.5000    0.0000 C   0  0  0  0  0  0  0  0  0  0  0  0
    4.5981    3.5000    0.0000 C   0  0  0  0  0  0  0  0  0  0  0  0
    5.4641    4.0000    0.0000 C   0  0  0  0  0  0  0  0  0  0  0  0
    5.4641    1.0000    0.0000 C   0  0  0  0  0  0  0  0  0  0  0  0
    4.5981   -0.5000    0.0000 C   0  0  0  0  0  0  0  0  0  0  0  0
    3.7320   -2.0000    0.0000 C   0  0  0  0  0  0  0  0  0  0  0  0
    2.8660   -2.5000    0.0000 C   0  0  0  0  0  0  0  0  0  0  0  0
    2.8660   -3.5000    0.0000 C   0  0  0  0  0  0  0  0  0  0  0  0
    4.5981   -2.5000    0.0000 C   0  0  0  0  0  0  0  0  0  0  0  0
    2.0000   -2.0000    0.0000 C   0  0  0  0  0  0  0  0  0  0  0  0
    3.7320   -4.0000    0.0000 C   0  0  0  0  0  0  0  0  0  0  0  0
    4.5981   -3.5000    0.0000 C   0  0  0  0  0  0  0  0  0  0  0  0
    2.0000   -4.0000    0.0000 C   0  0  0  0  0  0  0  0  0  0  0  0
    6.0010    1.6900    0.0000 H   0  0  0  0  0  0  0  0  0  0  0  0
    6.5422    1.9174    0.0000 H   0  0  0  0  0  0  0  0  0  0  0  0
    6.9407    2.6077    0.0000 H   0  0  0  0  0  0  0  0  0  0  0  0
    3.9875    2.6077    0.0000 H   0  0  0  0  0  0  0  0  0  0  0  0
    4.3860    1.9174    0.0000 H   0  0  0  0  0  0  0  0  0  0  0  0
    6.9407    3.3923    0.0000 H   0  0  0  0  0  0  0  0  0  0  0  0
    6.5422    4.0826    0.0000 H   0  0  0  0  0  0  0  0  0  0  0  0
    4.3860    4.0826    0.0000 H   0  0  0  0  0  0  0  0  0  0  0  0
    3.9875    3.3923    0.0000 H   0  0  0  0  0  0  0  0  0  0  0  0
    5.8626    4.4750    0.0000 H   0  0  0  0  0  0  0  0  0  0  0  0
    5.0656    4.4750    0.0000 H   0  0  0  0  0  0  0  0  0  0  0  0
    5.6762    0.4174    0.0000 H   0  0  0  0  0  0  0  0  0  0  0  0
    6.0747    1.1077    0.0000 H   0  0  0  0  0  0  0  0  0  0  0  0
    4.0611    0.8100    0.0000 H   0  0  0  0  0  0  0  0  0  0  0  0
    3.1951   -0.6900    0.0000 H   0  0  0  0  0  0  0  0  0  0  0  0
    5.1350   -2.1900    0.0000 H   0  0  0  0  0  0  0  0  0  0  0  0
    2.3100   -1.4631    0.0000 H   0  0  0  0  0  0  0  0  0  0  0  0
    1.4631   -1.6900    0.0000 H   0  0  0  0  0  0  0  0  0  0  0  0
    1.6900   -2.5369    0.0000 H   0  0  0  0  0  0  0  0  0  0  0  0
    3.7320   -4.6200    0.0000 H   0  0  0  0  0  0  0  0  0  0  0  0
    5.1350   -3.8100    0.0000 H   0  0  0  0  0  0  0  0  0  0  0  0
    1.6900   -3.4631    0.0000 H   0  0  0  0  0  0  0  0  0  0  0  0
    1.4631   -4.3100    0.0000 H   0  0  0  0  0  0  0  0  0  0  0  0
    2.3100   -4.5369    0.0000 H   0  0  0  0  0  0  0  0  0  0  0  0
  1 11  2  0  0  0  0
  2 10  1  0  0  0  0
  2 11  1  0  0  0  0
  2 33  1  0  0  0  0
  3 11  1  0  0  0  0
  3 12  1  0  0  0  0
  3 34  1  0  0  0  0
  4  5  1  0  0  0  0
  4  6  1  0  0  0  0
  4 10  1  0  0  0  0
  4 20  1  0  0  0  0
  5  7  1  0  0  0  0
  5 21  1  0  0  0  0
  5 22  1  0  0  0  0
  6  8  1  0  0  0  0
  6 23  1  0  0  0  0
  6 24  1  0  0  0  0
  7  9  1  0  0  0  0
  7 25  1  0  0  0  0
  7 26  1  0  0  0  0
  8  9  1  0  0  0  0
  8 27  1  0  0  0  0
  8 28  1  0  0  0  0
  9 29  1  0  0  0  0
  9 30  1  0  0  0  0
 10 31  1  0  0  0  0
 10 32  1  0  0  0  0
 12 13  1  0  0  0  0
 12 15  2  0  0  0  0
 13 14  2  0  0  0  0
 13 16  1  0  0  0  0
 14 17  1  0  0  0  0
 14 19  1  0  0  0  0
 15 18  1  0  0  0  0
 15 35  1  0  0  0  0
 16 36  1  0  0  0  0
 16 37  1  0  0  0  0
 16 38  1  0  0  0  0
 17 18  2  0  0  0  0
 17 39  1  0  0  0  0
 18 40  1  0  0  0  0
 19 41  1  0  0  0  0
 19 42  1  0  0  0  0
 19 43  1  0  0  0  0
M  END
> <PUBCHEM_COMPOUND_CID>
24049443

> <PUBCHEM_COMPOUND_CANONICALIZED>
1

> <PUBCHEM_CACTVS_COMPLEXITY>
287

> <PUBCHEM_CACTVS_HBOND_ACCEPTOR>
1

> <PUBCHEM_CACTVS_HBOND_DONOR>
2

> <PUBCHEM_CACTVS_ROTATABLE_BOND>
3

> <PUBCHEM_CACTVS_SUBSKEYS>
AAADceB7AABAAAAAAAAAAAAAAAAAAAAAAAAwYAAAAAAAAAABAAAAHAQQAAAADQjBGAQzwILAAACEAiRCQACCAAAhAgkIiIAIZIiIICLAkZGEIAhokAJIyCcQgIAOgAAAQAASAAAAAACAACQAAAAAAAAAAA==

> <PUBCHEM_IUPAC_OPENEYE_NAME>
1-(cyclohexylmethyl)-3-(2,3-dimethylphenyl)thiourea

> <PUBCHEM_IUPAC_CAS_NAME>
1-(cyclohexylmethyl)-3-(2,3-dimethylphenyl)thiourea

> <PUBCHEM_IUPAC_NAME>
1-(cyclohexylmethyl)-3-(2,3-dimethylphenyl)thiourea

> <PUBCHEM_IUPAC_SYSTEMATIC_NAME>
1-(cyclohexylmethyl)-3-(2,3-dimethylphenyl)thiourea

> <PUBCHEM_IUPAC_TRADITIONAL_NAME>
1-(cyclohexylmethyl)-3-(2,3-dimethylphenyl)thiourea

> <PUBCHEM_IUPAC_INCHI>
InChI=1S/C16H24N2S/c1-12-7-6-10-15(13(12)2)18-16(19)17-11-14-8-4-3-5-9-14/h6-7,10,14H,3-5,8-9,11H2,1-2H3,(H2,17,18,19)

> <PUBCHEM_IUPAC_INCHIKEY>
DGUNKXPCGQNNKL-UHFFFAOYSA-N

> <PUBCHEM_XLOGP3>
4.1

> <PUBCHEM_EXACT_MASS>
276.16602

> <PUBCHEM_MOLECULAR_FORMULA>
C16H24N2S

> <PUBCHEM_MOLECULAR_WEIGHT>
276.44016

> <PUBCHEM_OPENEYE_CAN_SMILES>
CC1=C(C(=CC=C1)NC(=S)NCC2CCCCC2)C

> <PUBCHEM_OPENEYE_ISO_SMILES>
CC1=C(C(=CC=C1)NC(=S)NCC2CCCCC2)C

> <PUBCHEM_CACTVS_TPSA>
56.2

> <PUBCHEM_MONOISOTOPIC_WEIGHT>
276.16602

> <PUBCHEM_TOTAL_CHARGE>
0

> <PUBCHEM_HEAVY_ATOM_COUNT>
19

> <PUBCHEM_ATOM_DEF_STEREO_COUNT>
0

> <PUBCHEM_ATOM_UDEF_STEREO_COUNT>
0

> <PUBCHEM_BOND_DEF_STEREO_COUNT>
0

> <PUBCHEM_BOND_UDEF_STEREO_COUNT>
0

> <PUBCHEM_ISOTOPIC_ATOM_COUNT>
0

> <PUBCHEM_COMPONENT_COUNT>
1

> <PUBCHEM_CACTVS_TAUTO_COUNT>
3

> <PUBCHEM_COORDINATE_TYPE>
1
5
255

> <PUBCHEM_BONDANNOTATIONS>
12  13  8
12  15  8
13  14  8
14  17  8
15  18  8
17  18  8

$$$$
