43027646
  -OEChem-12041212022D

 54 56  0     0  0  0  0  0  0999 V2000
    7.9244   -0.9676    0.0000 O   0  0  0  0  0  0  0  0  0  0  0  0
    7.5673    0.7272    0.0000 N   0  0  0  0  0  0  0  0  0  0  0  0
    4.6783   -4.1462    0.0000 N   0  0  0  0  0  0  0  0  0  0  0  0
    5.9674   -1.3800    0.0000 C   0  0  0  0  0  0  0  0  0  0  0  0
    4.9889   -1.5862    0.0000 C   0  0  0  0  0  0  0  0  0  0  0  0
    6.2781   -0.4295    0.0000 C   0  0  0  0  0  0  0  0  0  0  0  0
    4.6783   -2.5368    0.0000 C   0  0  0  0  0  0  0  0  0  0  0  0
    6.8994    1.4715    0.0000 C   0  0  0  0  0  0  0  0  0  0  0  0
    7.2566   -0.2233    0.0000 C   0  0  0  0  0  0  0  0  0  0  0  0
    8.5458    0.9335    0.0000 C   0  0  0  0  0  0  0  0  0  0  0  0
    3.7320   -2.8415    0.0000 C   0  0  0  0  0  0  0  0  0  0  0  0
    3.7320   -3.8415    0.0000 C   0  0  0  0  0  0  0  0  0  0  0  0
    5.9209    1.2653    0.0000 C   0  0  0  0  0  0  0  0  0  0  0  0
    5.2619   -3.3415    0.0000 C   0  0  0  0  0  0  0  0  0  0  0  0
    8.8564    1.8840    0.0000 C   0  0  0  0  0  0  0  0  0  0  0  0
    2.8660   -2.3415    0.0000 C   0  0  0  0  0  0  0  0  0  0  0  0
    2.8660   -4.3415    0.0000 C   0  0  0  0  0  0  0  0  0  0  0  0
    5.2531    2.0096    0.0000 C   0  0  0  0  0  0  0  0  0  0  0  0
    9.8349    2.0902    0.0000 C   0  0  0  0  0  0  0  0  0  0  0  0
    8.1886    2.6283    0.0000 C   0  0  0  0  0  0  0  0  0  0  0  0
    2.0000   -2.8415    0.0000 C   0  0  0  0  0  0  0  0  0  0  0  0
    2.0000   -3.8415    0.0000 C   0  0  0  0  0  0  0  0  0  0  0  0
    9.4778    3.7850    0.0000 C   0  0  0  0  0  0  0  0  0  0  0  0
   10.1456    3.0407    0.0000 C   0  0  0  0  0  0  0  0  0  0  0  0
    8.4993    3.5788    0.0000 C   0  0  0  0  0  0  0  0  0  0  0  0
    9.7884    4.7355    0.0000 C   0  0  0  0  0  0  0  0  0  0  0  0
    5.9880   -1.9997    0.0000 H   0  0  0  0  0  0  0  0  0  0  0  0
    6.5812   -1.4674    0.0000 H   0  0  0  0  0  0  0  0  0  0  0  0
    4.9684   -0.9666    0.0000 H   0  0  0  0  0  0  0  0  0  0  0  0
    4.3751   -1.4989    0.0000 H   0  0  0  0  0  0  0  0  0  0  0  0
    6.2575    0.1902    0.0000 H   0  0  0  0  0  0  0  0  0  0  0  0
    5.6643   -0.3421    0.0000 H   0  0  0  0  0  0  0  0  0  0  0  0
    7.4258    1.7992    0.0000 H   0  0  0  0  0  0  0  0  0  0  0  0
    6.6682    2.0468    0.0000 H   0  0  0  0  0  0  0  0  0  0  0  0
    8.5663    0.3138    0.0000 H   0  0  0  0  0  0  0  0  0  0  0  0
    9.1596    0.8461    0.0000 H   0  0  0  0  0  0  0  0  0  0  0  0
    5.3946    0.9377    0.0000 H   0  0  0  0  0  0  0  0  0  0  0  0
    6.1522    0.6901    0.0000 H   0  0  0  0  0  0  0  0  0  0  0  0
    5.8819   -3.3415    0.0000 H   0  0  0  0  0  0  0  0  0  0  0  0
    4.8709   -4.7355    0.0000 H   0  0  0  0  0  0  0  0  0  0  0  0
    2.8660   -1.7215    0.0000 H   0  0  0  0  0  0  0  0  0  0  0  0
    2.8660   -4.9615    0.0000 H   0  0  0  0  0  0  0  0  0  0  0  0
    5.7145    2.4237    0.0000 H   0  0  0  0  0  0  0  0  0  0  0  0
    4.8390    2.4711    0.0000 H   0  0  0  0  0  0  0  0  0  0  0  0
    4.7916    1.5956    0.0000 H   0  0  0  0  0  0  0  0  0  0  0  0
   10.2490    1.6287    0.0000 H   0  0  0  0  0  0  0  0  0  0  0  0
    7.5819    2.5004    0.0000 H   0  0  0  0  0  0  0  0  0  0  0  0
    1.4631   -2.5315    0.0000 H   0  0  0  0  0  0  0  0  0  0  0  0
    1.4631   -4.1515    0.0000 H   0  0  0  0  0  0  0  0  0  0  0  0
   10.7523    3.1686    0.0000 H   0  0  0  0  0  0  0  0  0  0  0  0
    8.0852    4.0403    0.0000 H   0  0  0  0  0  0  0  0  0  0  0  0
   10.3777    4.5429    0.0000 H   0  0  0  0  0  0  0  0  0  0  0  0
    9.9810    5.3249    0.0000 H   0  0  0  0  0  0  0  0  0  0  0  0
    9.1991    4.9281    0.0000 H   0  0  0  0  0  0  0  0  0  0  0  0
  1  9  2  0  0  0  0
  2  8  1  0  0  0  0
  2  9  1  0  0  0  0
  2 10  1  0  0  0  0
  3 12  1  0  0  0  0
  3 14  1  0  0  0  0
  3 40  1  0  0  0  0
  4  5  1  0  0  0  0
  4  6  1  0  0  0  0
  4 27  1  0  0  0  0
  4 28  1  0  0  0  0
  5  7  1  0  0  0  0
  5 29  1  0  0  0  0
  5 30  1  0  0  0  0
  6  9  1  0  0  0  0
  6 31  1  0  0  0  0
  6 32  1  0  0  0  0
  7 11  1  0  0  0  0
  7 14  2  0  0  0  0
  8 13  1  0  0  0  0
  8 33  1  0  0  0  0
  8 34  1  0  0  0  0
 10 15  1  0  0  0  0
 10 35  1  0  0  0  0
 10 36  1  0  0  0  0
 11 12  1  0  0  0  0
 11 16  2  0  0  0  0
 12 17  2  0  0  0  0
 13 18  1  0  0  0  0
 13 37  1  0  0  0  0
 13 38  1  0  0  0  0
 14 39  1  0  0  0  0
 15 19  2  0  0  0  0
 15 20  1  0  0  0  0
 16 21  1  0  0  0  0
 16 41  1  0  0  0  0
 17 22  1  0  0  0  0
 17 42  1  0  0  0  0
 18 43  1  0  0  0  0
 18 44  1  0  0  0  0
 18 45  1  0  0  0  0
 19 24  1  0  0  0  0
 19 46  1  0  0  0  0
 20 25  2  0  0  0  0
 20 47  1  0  0  0  0
 21 22  2  0  0  0  0
 21 48  1  0  0  0  0
 22 49  1  0  0  0  0
 23 24  2  0  0  0  0
 23 25  1  0  0  0  0
 23 26  1  0  0  0  0
 24 50  1  0  0  0  0
 25 51  1  0  0  0  0
 26 52  1  0  0  0  0
 26 53  1  0  0  0  0
 26 54  1  0  0  0  0
M  END
> <PUBCHEM_COMPOUND_CID>
43027646

> <PUBCHEM_COMPOUND_CANONICALIZED>
1

> <PUBCHEM_CACTVS_COMPLEXITY>
430

> <PUBCHEM_CACTVS_HBOND_ACCEPTOR>
1

> <PUBCHEM_CACTVS_HBOND_DONOR>
1

> <PUBCHEM_CACTVS_ROTATABLE_BOND>
8

> <PUBCHEM_CACTVS_SUBSKEYS>
AAADceB7IAAAAAAAAAAAAAAAAAAAAWAAAAAwYAAAAAAAAFgB9AAAHgAQAAAADAjBngQ+wPPJkACoAzV3VACCgCAxAiAI2aE4ZJgIIPLAkZGEIAhglgDIyAcYiMCOwAAAAAACAACAAAAAAAQAAAAAAAAAAA==

> <PUBCHEM_IUPAC_OPENEYE_NAME>
4-(1H-indol-3-yl)-N-propyl-N-(p-tolylmethyl)butanamide

> <PUBCHEM_IUPAC_CAS_NAME>
4-(1H-indol-3-yl)-N-[(4-methylphenyl)methyl]-N-propylbutanamide

> <PUBCHEM_IUPAC_NAME>
4-(1H-indol-3-yl)-N-[(4-methylphenyl)methyl]-N-propylbutanamide

> <PUBCHEM_IUPAC_SYSTEMATIC_NAME>
4-(1H-indol-3-yl)-N-[(4-methylphenyl)methyl]-N-propyl-butanamide

> <PUBCHEM_IUPAC_TRADITIONAL_NAME>
4-(1H-indol-3-yl)-N-(4-methylbenzyl)-N-propyl-butyramide

> <PUBCHEM_IUPAC_INCHI>
InChI=1S/C23H28N2O/c1-3-15-25(17-19-13-11-18(2)12-14-19)23(26)10-6-7-20-16-24-22-9-5-4-8-21(20)22/h4-5,8-9,11-14,16,24H,3,6-7,10,15,17H2,1-2H3

> <PUBCHEM_IUPAC_INCHIKEY>
NKUQQJYCZOZVOK-UHFFFAOYSA-N

> <PUBCHEM_XLOGP3>
5

> <PUBCHEM_EXACT_MASS>
348.220164

> <PUBCHEM_MOLECULAR_FORMULA>
C23H28N2O

> <PUBCHEM_MOLECULAR_WEIGHT>
348.48122

> <PUBCHEM_OPENEYE_CAN_SMILES>
CCCN(CC1=CC=C(C=C1)C)C(=O)CCCC2=CNC3=CC=CC=C32

> <PUBCHEM_OPENEYE_ISO_SMILES>
CCCN(CC1=CC=C(C=C1)C)C(=O)CCCC2=CNC3=CC=CC=C32

> <PUBCHEM_CACTVS_TPSA>
36.1

> <PUBCHEM_MONOISOTOPIC_WEIGHT>
348.220164

> <PUBCHEM_TOTAL_CHARGE>
0

> <PUBCHEM_HEAVY_ATOM_COUNT>
26

> <PUBCHEM_ATOM_DEF_STEREO_COUNT>
0

> <PUBCHEM_ATOM_UDEF_STEREO_COUNT>
0

> <PUBCHEM_BOND_DEF_STEREO_COUNT>
0

> <PUBCHEM_BOND_UDEF_STEREO_COUNT>
0

> <PUBCHEM_ISOTOPIC_ATOM_COUNT>
0

> <PUBCHEM_COMPONENT_COUNT>
1

> <PUBCHEM_CACTVS_TAUTO_COUNT>
1

> <PUBCHEM_COORDINATE_TYPE>
1
5
255

> <PUBCHEM_BONDANNOTATIONS>
11  12  8
11  16  8
12  17  8
15  19  8
15  20  8
16  21  8
17  22  8
19  24  8
20  25  8
21  22  8
23  24  8
23  25  8
3  12  8
3  14  8
7  11  8
7  14  8

$$$$
43039024
  -OEChem-12041212032D

 37 38  0     0  0  0  0  0  0999 V2000
    5.1350   -1.2500    0.0000 O   0  0  0  0  0  0  0  0  0  0  0  0
    6.8671    1.7500    0.0000 O   0  0  0  0  0  0  0  0  0  0  0  0
    3.4030   -1.2500    0.0000 O   0  0  0  0  0  0  0  0  0  0  0  0
    6.0010    3.2500    0.0000 O   0  0  0  0  0  0  0  0  0  0  0  0
    5.1350   -3.2500    0.0000 N   0  0  0  0  0  0  0  0  0  0  0  0
    7.7331    4.2500    0.0000 N   0  0  0  0  0  0  0  0  0  0  0  0
    3.4030   -4.2500    0.0000 N   0  0  0  0  0  0  0  0  0  0  0  0
    9.4651    3.2500    0.0000 N   0  0  0  0  0  0  0  0  0  0  0  0
    2.5369   -2.7500    0.0000 N   0  0  0  0  0  0  0  0  0  0  0  0
    8.5991    1.7500    0.0000 N   0  0  0  0  0  0  0  0  0  0  0  0
    6.0010    0.2500    0.0000 C   0  0  0  0  0  0  0  0  0  0  0  0
    6.0010    1.2500    0.0000 C   0  0  0  0  0  0  0  0  0  0  0  0
    5.1350   -0.2500    0.0000 C   0  0  0  0  0  0  0  0  0  0  0  0
    4.2690   -1.7500    0.0000 C   0  0  0  0  0  0  0  0  0  0  0  0
    6.8671    2.7500    0.0000 C   0  0  0  0  0  0  0  0  0  0  0  0
    4.2690   -2.7500    0.0000 C   0  0  0  0  0  0  0  0  0  0  0  0
    7.7331    3.2500    0.0000 C   0  0  0  0  0  0  0  0  0  0  0  0
    3.4030   -3.2500    0.0000 C   0  0  0  0  0  0  0  0  0  0  0  0
    8.5991    2.7500    0.0000 C   0  0  0  0  0  0  0  0  0  0  0  0
    5.1350   -4.2500    0.0000 C   0  0  0  0  0  0  0  0  0  0  0  0
    8.5991    4.7500    0.0000 C   0  0  0  0  0  0  0  0  0  0  0  0
    4.2690   -4.7500    0.0000 C   0  0  0  0  0  0  0  0  0  0  0  0
    9.4651    4.2500    0.0000 C   0  0  0  0  0  0  0  0  0  0  0  0
    6.2131   -0.3326    0.0000 H   0  0  0  0  0  0  0  0  0  0  0  0
    6.6116    0.3577    0.0000 H   0  0  0  0  0  0  0  0  0  0  0  0
    5.7890    1.8326    0.0000 H   0  0  0  0  0  0  0  0  0  0  0  0
    5.3905    1.1423    0.0000 H   0  0  0  0  0  0  0  0  0  0  0  0
    4.9230    0.3326    0.0000 H   0  0  0  0  0  0  0  0  0  0  0  0
    4.5244   -0.3577    0.0000 H   0  0  0  0  0  0  0  0  0  0  0  0
    8.5991    5.3700    0.0000 H   0  0  0  0  0  0  0  0  0  0  0  0
    5.6720   -4.5600    0.0000 H   0  0  0  0  0  0  0  0  0  0  0  0
   10.0021    4.5600    0.0000 H   0  0  0  0  0  0  0  0  0  0  0  0
    4.2690   -5.3700    0.0000 H   0  0  0  0  0  0  0  0  0  0  0  0
    9.1360    1.4400    0.0000 H   0  0  0  0  0  0  0  0  0  0  0  0
    8.0622    1.4400    0.0000 H   0  0  0  0  0  0  0  0  0  0  0  0
    2.0000   -3.0600    0.0000 H   0  0  0  0  0  0  0  0  0  0  0  0
    2.5369   -2.1300    0.0000 H   0  0  0  0  0  0  0  0  0  0  0  0
  1 13  1  0  0  0  0
  1 14  1  0  0  0  0
  2 12  1  0  0  0  0
  2 15  1  0  0  0  0
  3 14  2  0  0  0  0
  4 15  2  0  0  0  0
  5 16  2  0  0  0  0
  5 20  1  0  0  0  0
  6 17  2  0  0  0  0
  6 21  1  0  0  0  0
  7 18  2  0  0  0  0
  7 22  1  0  0  0  0
  8 19  2  0  0  0  0
  8 23  1  0  0  0  0
  9 18  1  0  0  0  0
  9 36  1  0  0  0  0
  9 37  1  0  0  0  0
 10 19  1  0  0  0  0
 10 34  1  0  0  0  0
 10 35  1  0  0  0  0
 11 12  1  0  0  0  0
 11 13  1  0  0  0  0
 11 24  1  0  0  0  0
 11 25  1  0  0  0  0
 12 26  1  0  0  0  0
 12 27  1  0  0  0  0
 13 28  1  0  0  0  0
 13 29  1  0  0  0  0
 14 16  1  0  0  0  0
 15 17  1  0  0  0  0
 16 18  1  0  0  0  0
 17 19  1  0  0  0  0
 20 22  2  0  0  0  0
 20 31  1  0  0  0  0
 21 23  2  0  0  0  0
 21 30  1  0  0  0  0
 22 33  1  0  0  0  0
 23 32  1  0  0  0  0
M  END
> <PUBCHEM_COMPOUND_CID>
43039024

> <PUBCHEM_COMPOUND_CANONICALIZED>
1

> <PUBCHEM_CACTVS_COMPLEXITY>
374

> <PUBCHEM_CACTVS_HBOND_ACCEPTOR>
10

> <PUBCHEM_CACTVS_HBOND_DONOR>
2

> <PUBCHEM_CACTVS_ROTATABLE_BOND>
8

> <PUBCHEM_CACTVS_SUBSKEYS>
AAADccBzuAAAAAAAAAAAAAAAAAAAAAAAAAAsWAAAAAAAAAAB4AAAHgAQAAAACAjhlgYtuBJIFACoARb3bAQAgC0XEiAIUAG4eECCREhAICgXAIADAALQIGAAAAAAAAAAAAAAAAAAAAAAAAAAAAAAAAAAAA==

> <PUBCHEM_IUPAC_OPENEYE_NAME>
3-(3-aminopyrazine-2-carbonyl)oxypropyl 3-aminopyrazine-2-carboxylate

> <PUBCHEM_IUPAC_CAS_NAME>
3-amino-2-pyrazinecarboxylic acid 3-[(3-amino-2-pyrazinyl)-oxomethoxy]propyl ester

> <PUBCHEM_IUPAC_NAME>
3-(3-aminopyrazine-2-carbonyl)oxypropyl 3-aminopyrazine-2-carboxylate

> <PUBCHEM_IUPAC_SYSTEMATIC_NAME>
3-(3-azanylpyrazin-2-yl)carbonyloxypropyl 3-azanylpyrazine-2-carboxylate

> <PUBCHEM_IUPAC_TRADITIONAL_NAME>
3-aminopyrazinic acid 3-(3-aminopyrazinoyl)oxypropyl ester

> <PUBCHEM_IUPAC_INCHI>
InChI=1S/C13H14N6O4/c14-10-8(16-2-4-18-10)12(20)22-6-1-7-23-13(21)9-11(15)19-5-3-17-9/h2-5H,1,6-7H2,(H2,14,18)(H2,15,19)

> <PUBCHEM_IUPAC_INCHIKEY>
WHPCZEDFVRDJEO-UHFFFAOYSA-N

> <PUBCHEM_XLOGP3>
0.2

> <PUBCHEM_EXACT_MASS>
318.107653

> <PUBCHEM_MOLECULAR_FORMULA>
C13H14N6O4

> <PUBCHEM_MOLECULAR_WEIGHT>
318.28806

> <PUBCHEM_OPENEYE_CAN_SMILES>
C1=CN=C(C(=N1)C(=O)OCCCOC(=O)C2=NC=CN=C2N)N

> <PUBCHEM_OPENEYE_ISO_SMILES>
C1=CN=C(C(=N1)C(=O)OCCCOC(=O)C2=NC=CN=C2N)N

> <PUBCHEM_CACTVS_TPSA>
156

> <PUBCHEM_MONOISOTOPIC_WEIGHT>
318.107653

> <PUBCHEM_TOTAL_CHARGE>
0

> <PUBCHEM_HEAVY_ATOM_COUNT>
23

> <PUBCHEM_ATOM_DEF_STEREO_COUNT>
0

> <PUBCHEM_ATOM_UDEF_STEREO_COUNT>
0

> <PUBCHEM_BOND_DEF_STEREO_COUNT>
0

> <PUBCHEM_BOND_UDEF_STEREO_COUNT>
0

> <PUBCHEM_ISOTOPIC_ATOM_COUNT>
0

> <PUBCHEM_COMPONENT_COUNT>
1

> <PUBCHEM_CACTVS_TAUTO_COUNT>
10

> <PUBCHEM_COORDINATE_TYPE>
1
5
255

> <PUBCHEM_BONDANNOTATIONS>
16  18  8
17  19  8
20  22  8
21  23  8
5  16  8
5  20  8
6  17  8
6  21  8
7  18  8
7  22  8
8  19  8
8  23  8

$$$$
43041669
  -OEChem-12041212032D

 49 52  0     1  0  0  0  0  0999 V2000
    7.9244    0.1964    0.0000 O   0  0  0  0  0  0  0  0  0  0  0  0
    7.5673    1.8912    0.0000 N   0  0  0  0  0  0  0  0  0  0  0  0
    4.6783   -2.9823    0.0000 N   0  0  0  0  0  0  0  0  0  0  0  0
    6.9809    2.7012    0.0000 C   0  0  3  0  0  0  0  0  0  0  0  0
    7.5701    3.5092    0.0000 C   0  0  0  0  0  0  0  0  0  0  0  0
    8.5206    3.1986    0.0000 C   0  0  0  0  0  0  0  0  0  0  0  0
    8.5189    2.1986    0.0000 C   0  0  0  0  0  0  0  0  0  0  0  0
    5.9809    2.7030    0.0000 C   0  0  0  0  0  0  0  0  0  0  0  0
    7.2566    0.9407    0.0000 C   0  0  0  0  0  0  0  0  0  0  0  0
    6.2781    0.7345    0.0000 C   0  0  0  0  0  0  0  0  0  0  0  0
    5.9674   -0.2161    0.0000 C   0  0  0  0  0  0  0  0  0  0  0  0
    4.9889   -0.4223    0.0000 C   0  0  0  0  0  0  0  0  0  0  0  0
    5.4824    3.5698    0.0000 C   0  0  0  0  0  0  0  0  0  0  0  0
    5.4794    1.8378    0.0000 C   0  0  0  0  0  0  0  0  0  0  0  0
    4.6783   -1.3728    0.0000 C   0  0  0  0  0  0  0  0  0  0  0  0
    3.7320   -1.6775    0.0000 C   0  0  0  0  0  0  0  0  0  0  0  0
    4.4824    3.5716    0.0000 C   0  0  0  0  0  0  0  0  0  0  0  0
    4.4794    1.8395    0.0000 C   0  0  0  0  0  0  0  0  0  0  0  0
    5.2619   -2.1775    0.0000 C   0  0  0  0  0  0  0  0  0  0  0  0
    3.7320   -2.6775    0.0000 C   0  0  0  0  0  0  0  0  0  0  0  0
    3.9809    2.7064    0.0000 C   0  0  0  0  0  0  0  0  0  0  0  0
    2.8660   -1.1775    0.0000 C   0  0  0  0  0  0  0  0  0  0  0  0
    2.8660   -3.1775    0.0000 C   0  0  0  0  0  0  0  0  0  0  0  0
    2.0000   -1.6775    0.0000 C   0  0  0  0  0  0  0  0  0  0  0  0
    2.0000   -2.6775    0.0000 C   0  0  0  0  0  0  0  0  0  0  0  0
    6.7004    3.2541    0.0000 H   0  0  0  0  0  0  0  0  0  0  0  0
    7.8232    4.0752    0.0000 H   0  0  0  0  0  0  0  0  0  0  0  0
    7.0337    3.8202    0.0000 H   0  0  0  0  0  0  0  0  0  0  0  0
    9.1371    3.1327    0.0000 H   0  0  0  0  0  0  0  0  0  0  0  0
    8.6505    3.8048    0.0000 H   0  0  0  0  0  0  0  0  0  0  0  0
    8.6467    1.5919    0.0000 H   0  0  0  0  0  0  0  0  0  0  0  0
    9.1356    2.2623    0.0000 H   0  0  0  0  0  0  0  0  0  0  0  0
    6.2575    1.3541    0.0000 H   0  0  0  0  0  0  0  0  0  0  0  0
    5.6643    0.8218    0.0000 H   0  0  0  0  0  0  0  0  0  0  0  0
    5.9880   -0.8357    0.0000 H   0  0  0  0  0  0  0  0  0  0  0  0
    6.5812   -0.3034    0.0000 H   0  0  0  0  0  0  0  0  0  0  0  0
    4.9684    0.1974    0.0000 H   0  0  0  0  0  0  0  0  0  0  0  0
    4.3751   -0.3349    0.0000 H   0  0  0  0  0  0  0  0  0  0  0  0
    5.7933    4.1062    0.0000 H   0  0  0  0  0  0  0  0  0  0  0  0
    5.7885    1.3003    0.0000 H   0  0  0  0  0  0  0  0  0  0  0  0
    4.1733    4.1091    0.0000 H   0  0  0  0  0  0  0  0  0  0  0  0
    4.1685    1.3031    0.0000 H   0  0  0  0  0  0  0  0  0  0  0  0
    5.8819   -2.1775    0.0000 H   0  0  0  0  0  0  0  0  0  0  0  0
    3.3609    2.7075    0.0000 H   0  0  0  0  0  0  0  0  0  0  0  0
    4.8709   -3.5716    0.0000 H   0  0  0  0  0  0  0  0  0  0  0  0
    2.8660   -0.5575    0.0000 H   0  0  0  0  0  0  0  0  0  0  0  0
    2.8660   -3.7975    0.0000 H   0  0  0  0  0  0  0  0  0  0  0  0
    1.4631   -1.3675    0.0000 H   0  0  0  0  0  0  0  0  0  0  0  0
    1.4631   -2.9875    0.0000 H   0  0  0  0  0  0  0  0  0  0  0  0
  1  9  2  0  0  0  0
  2  4  1  0  0  0  0
  2  7  1  0  0  0  0
  2  9  1  0  0  0  0
  3 19  1  0  0  0  0
  3 20  1  0  0  0  0
  3 45  1  0  0  0  0
  4  5  1  0  0  0  0
  4  8  1  0  0  0  0
  4 26  1  0  0  0  0
  5  6  1  0  0  0  0
  5 27  1  0  0  0  0
  5 28  1  0  0  0  0
  6  7  1  0  0  0  0
  6 29  1  0  0  0  0
  6 30  1  0  0  0  0
  7 31  1  0  0  0  0
  7 32  1  0  0  0  0
  8 13  2  0  0  0  0
  8 14  1  0  0  0  0
  9 10  1  0  0  0  0
 10 11  1  0  0  0  0
 10 33  1  0  0  0  0
 10 34  1  0  0  0  0
 11 12  1  0  0  0  0
 11 35  1  0  0  0  0
 11 36  1  0  0  0  0
 12 15  1  0  0  0  0
 12 37  1  0  0  0  0
 12 38  1  0  0  0  0
 13 17  1  0  0  0  0
 13 39  1  0  0  0  0
 14 18  2  0  0  0  0
 14 40  1  0  0  0  0
 15 16  1  0  0  0  0
 15 19  2  0  0  0  0
 16 20  1  0  0  0  0
 16 22  2  0  0  0  0
 17 21  2  0  0  0  0
 17 41  1  0  0  0  0
 18 21  1  0  0  0  0
 18 42  1  0  0  0  0
 19 43  1  0  0  0  0
 20 23  2  0  0  0  0
 21 44  1  0  0  0  0
 22 24  1  0  0  0  0
 22 46  1  0  0  0  0
 23 25  1  0  0  0  0
 23 47  1  0  0  0  0
 24 25  2  0  0  0  0
 24 48  1  0  0  0  0
 25 49  1  0  0  0  0
M  END
> <PUBCHEM_COMPOUND_CID>
43041669

> <PUBCHEM_COMPOUND_CANONICALIZED>
1

> <PUBCHEM_CACTVS_COMPLEXITY>
445

> <PUBCHEM_CACTVS_HBOND_ACCEPTOR>
1

> <PUBCHEM_CACTVS_HBOND_DONOR>
1

> <PUBCHEM_CACTVS_ROTATABLE_BOND>
5

> <PUBCHEM_CACTVS_SUBSKEYS>
AAADceB7IAAAAAAAAAAAAAAAAAAAAWLAAAAwYAAAAAAAAFgB9AAAHgAQAAAADCjBngQ8wPPJkACoAzV3VACCgCAxAiAI2aE4ZJgIIPLAkZGEIAhglgDIyAcYiMCOgAAAAAACAAAAAAAAAAQAAAAAAAAAAA==

> <PUBCHEM_IUPAC_OPENEYE_NAME>
4-(1H-indol-3-yl)-1-(2-phenylpyrrolidin-1-yl)butan-1-one

> <PUBCHEM_IUPAC_CAS_NAME>
4-(1H-indol-3-yl)-1-(2-phenyl-1-pyrrolidinyl)-1-butanone

> <PUBCHEM_IUPAC_NAME>
4-(1H-indol-3-yl)-1-(2-phenylpyrrolidin-1-yl)butan-1-one

> <PUBCHEM_IUPAC_SYSTEMATIC_NAME>
4-(1H-indol-3-yl)-1-(2-phenylpyrrolidin-1-yl)butan-1-one

> <PUBCHEM_IUPAC_TRADITIONAL_NAME>
4-(1H-indol-3-yl)-1-(2-phenylpyrrolidino)butan-1-one

> <PUBCHEM_IUPAC_INCHI>
InChI=1S/C22H24N2O/c25-22(24-15-7-13-21(24)17-8-2-1-3-9-17)14-6-10-18-16-23-20-12-5-4-11-19(18)20/h1-5,8-9,11-12,16,21,23H,6-7,10,13-15H2

> <PUBCHEM_IUPAC_INCHIKEY>
KHTGDGSLIWLRHF-UHFFFAOYSA-N

> <PUBCHEM_XLOGP3>
4.3

> <PUBCHEM_EXACT_MASS>
332.188863

> <PUBCHEM_MOLECULAR_FORMULA>
C22H24N2O

> <PUBCHEM_MOLECULAR_WEIGHT>
332.43876

> <PUBCHEM_OPENEYE_CAN_SMILES>
C1CC(N(C1)C(=O)CCCC2=CNC3=CC=CC=C32)C4=CC=CC=C4

> <PUBCHEM_OPENEYE_ISO_SMILES>
C1CC(N(C1)C(=O)CCCC2=CNC3=CC=CC=C32)C4=CC=CC=C4

> <PUBCHEM_CACTVS_TPSA>
36.1

> <PUBCHEM_MONOISOTOPIC_WEIGHT>
332.188863

> <PUBCHEM_TOTAL_CHARGE>
0

> <PUBCHEM_HEAVY_ATOM_COUNT>
25

> <PUBCHEM_ATOM_DEF_STEREO_COUNT>
0

> <PUBCHEM_ATOM_UDEF_STEREO_COUNT>
1

> <PUBCHEM_BOND_DEF_STEREO_COUNT>
0

> <PUBCHEM_BOND_UDEF_STEREO_COUNT>
0

> <PUBCHEM_ISOTOPIC_ATOM_COUNT>
0

> <PUBCHEM_COMPONENT_COUNT>
1

> <PUBCHEM_CACTVS_TAUTO_COUNT>
1

> <PUBCHEM_COORDINATE_TYPE>
1
5
255

> <PUBCHEM_BONDANNOTATIONS>
13  17  8
14  18  8
15  16  8
15  19  8
16  20  8
16  22  8
17  21  8
18  21  8
20  23  8
22  24  8
23  25  8
24  25  8
3  19  8
3  20  8
4  8  3
8  13  8
8  14  8

$$$$
