18225517
  -OEChem-11301217222D

 28 29  0     0  0  0  0  0  0999 V2000
    8.0622    3.2500    0.0000 I   0  0  0  0  0  0  0  0  0  0  0  0
    2.0000   -3.2500    0.0000 Cl  0  0  0  0  0  0  0  0  0  0  0  0
    3.7320    1.7500    0.0000 O   0  0  0  0  0  0  0  0  0  0  0  0
    5.4641    1.7500    0.0000 C   0  0  0  0  0  0  0  0  0  0  0  0
    3.7320   -1.2500    0.0000 C   0  0  0  0  0  0  0  0  0  0  0  0
    4.5981    1.2500    0.0000 C   0  0  0  0  0  0  0  0  0  0  0  0
    3.7320   -0.2500    0.0000 C   0  0  0  0  0  0  0  0  0  0  0  0
    4.5981    0.2500    0.0000 C   0  0  0  0  0  0  0  0  0  0  0  0
    6.3301    1.2500    0.0000 C   0  0  0  0  0  0  0  0  0  0  0  0
    5.4641    2.7500    0.0000 C   0  0  0  0  0  0  0  0  0  0  0  0
    2.8660   -1.7500    0.0000 C   0  0  0  0  0  0  0  0  0  0  0  0
    4.5981   -1.7500    0.0000 C   0  0  0  0  0  0  0  0  0  0  0  0
    7.1962    1.7500    0.0000 C   0  0  0  0  0  0  0  0  0  0  0  0
    6.3301    3.2500    0.0000 C   0  0  0  0  0  0  0  0  0  0  0  0
    2.8660   -2.7500    0.0000 C   0  0  0  0  0  0  0  0  0  0  0  0
    4.5981   -2.7500    0.0000 C   0  0  0  0  0  0  0  0  0  0  0  0
    7.1962    2.7500    0.0000 C   0  0  0  0  0  0  0  0  0  0  0  0
    3.7320   -3.2500    0.0000 C   0  0  0  0  0  0  0  0  0  0  0  0
    3.1951    0.0600    0.0000 H   0  0  0  0  0  0  0  0  0  0  0  0
    5.1350   -0.0600    0.0000 H   0  0  0  0  0  0  0  0  0  0  0  0
    6.3301    0.6300    0.0000 H   0  0  0  0  0  0  0  0  0  0  0  0
    4.9272    3.0600    0.0000 H   0  0  0  0  0  0  0  0  0  0  0  0
    2.3291   -1.4400    0.0000 H   0  0  0  0  0  0  0  0  0  0  0  0
    5.1350   -1.4400    0.0000 H   0  0  0  0  0  0  0  0  0  0  0  0
    7.7331    1.4400    0.0000 H   0  0  0  0  0  0  0  0  0  0  0  0
    6.3301    3.8700    0.0000 H   0  0  0  0  0  0  0  0  0  0  0  0
    5.1350   -3.0600    0.0000 H   0  0  0  0  0  0  0  0  0  0  0  0
    3.7320   -3.8700    0.0000 H   0  0  0  0  0  0  0  0  0  0  0  0
  1 17  1  0  0  0  0
  2 15  1  0  0  0  0
  3  6  2  0  0  0  0
  4  6  1  0  0  0  0
  4  9  2  0  0  0  0
  4 10  1  0  0  0  0
  5  7  1  0  0  0  0
  5 11  2  0  0  0  0
  5 12  1  0  0  0  0
  6  8  1  0  0  0  0
  7  8  2  0  0  0  0
  7 19  1  0  0  0  0
  8 20  1  0  0  0  0
  9 13  1  0  0  0  0
  9 21  1  0  0  0  0
 10 14  2  0  0  0  0
 10 22  1  0  0  0  0
 11 15  1  0  0  0  0
 11 23  1  0  0  0  0
 12 16  2  0  0  0  0
 12 24  1  0  0  0  0
 13 17  2  0  0  0  0
 13 25  1  0  0  0  0
 14 17  1  0  0  0  0
 14 26  1  0  0  0  0
 15 18  2  0  0  0  0
 16 18  1  0  0  0  0
 16 27  1  0  0  0  0
 18 28  1  0  0  0  0
M  END
> <PUBCHEM_COMPOUND_CID>
18225517

> <PUBCHEM_COMPOUND_CANONICALIZED>
1

> <PUBCHEM_CACTVS_COMPLEXITY>
308

> <PUBCHEM_CACTVS_HBOND_ACCEPTOR>
1

> <PUBCHEM_CACTVS_HBOND_DONOR>
0

> <PUBCHEM_CACTVS_ROTATABLE_BOND>
3

> <PUBCHEM_CACTVS_SUBSKEYS>
AAADccBwIAAEAgAAAAAAAAAAAAAAAAAAAAAwYAAAAAAAAAABQAAAGgIgAAAADAaCmCAwAIAAAACIAqBSAAACAAAkBQAIiAEAAsgIIDKBFxCAIQAggAAIiYcIiICOAAAAIAAAAAAAAABAAAAAAAAAAAAAAA==

> <PUBCHEM_IUPAC_OPENEYE_NAME>
(E)-3-(3-chlorophenyl)-1-(4-iodophenyl)prop-2-en-1-one

> <PUBCHEM_IUPAC_CAS_NAME>
(E)-3-(3-chlorophenyl)-1-(4-iodophenyl)-2-propen-1-one

> <PUBCHEM_IUPAC_NAME>
(E)-3-(3-chlorophenyl)-1-(4-iodophenyl)prop-2-en-1-one

> <PUBCHEM_IUPAC_SYSTEMATIC_NAME>
(E)-3-(3-chlorophenyl)-1-(4-iodophenyl)prop-2-en-1-one

> <PUBCHEM_IUPAC_TRADITIONAL_NAME>
(E)-3-(3-chlorophenyl)-1-(4-iodophenyl)prop-2-en-1-one

> <PUBCHEM_IUPAC_INCHI>
InChI=1S/C15H10ClIO/c16-13-3-1-2-11(10-13)4-9-15(18)12-5-7-14(17)8-6-12/h1-10H/b9-4+

> <PUBCHEM_IUPAC_INCHIKEY>
MSFNTGDBLAKVDH-RUDMXATFSA-N

> <PUBCHEM_XLOGP3>
4.4

> <PUBCHEM_EXACT_MASS>
367.946491

> <PUBCHEM_MOLECULAR_FORMULA>
C15H10ClIO

> <PUBCHEM_MOLECULAR_WEIGHT>
368.59677

> <PUBCHEM_OPENEYE_CAN_SMILES>
C1=CC(=CC(=C1)Cl)C=CC(=O)C2=CC=C(C=C2)I

> <PUBCHEM_OPENEYE_ISO_SMILES>
C1=CC(=CC(=C1)Cl)/C=C/C(=O)C2=CC=C(C=C2)I

> <PUBCHEM_CACTVS_TPSA>
17.1

> <PUBCHEM_MONOISOTOPIC_WEIGHT>
367.946491

> <PUBCHEM_TOTAL_CHARGE>
0

> <PUBCHEM_HEAVY_ATOM_COUNT>
18

> <PUBCHEM_ATOM_DEF_STEREO_COUNT>
0

> <PUBCHEM_ATOM_UDEF_STEREO_COUNT>
0

> <PUBCHEM_BOND_DEF_STEREO_COUNT>
1

> <PUBCHEM_BOND_UDEF_STEREO_COUNT>
0

> <PUBCHEM_ISOTOPIC_ATOM_COUNT>
0

> <PUBCHEM_COMPONENT_COUNT>
1

> <PUBCHEM_CACTVS_TAUTO_COUNT>
1

> <PUBCHEM_COORDINATE_TYPE>
1
5
255

> <PUBCHEM_BONDANNOTATIONS>
10  14  8
11  15  8
12  16  8
13  17  8
14  17  8
15  18  8
16  18  8
4  10  8
4  9  8
5  11  8
5  12  8
9  13  8

$$$$
18226064
  -OEChem-11301217222D

 42 43  0     0  0  0  0  0  0999 V2000
    5.4641   -1.7500    0.0000 O   0  0  0  0  0  0  0  0  0  0  0  0
    3.7320   -1.7500    0.0000 N   0  0  0  0  0  0  0  0  0  0  0  0
    3.7320   -2.7500    0.0000 C   0  0  0  0  0  0  0  0  0  0  0  0
    2.8660   -3.2500    0.0000 C   0  0  0  0  0  0  0  0  0  0  0  0
    5.4641    3.2500    0.0000 C   0  0  0  0  0  0  0  0  0  0  0  0
    4.5981   -4.2500    0.0000 C   0  0  0  0  0  0  0  0  0  0  0  0
    4.5981   -3.2500    0.0000 C   0  0  0  0  0  0  0  0  0  0  0  0
    5.4641    4.2500    0.0000 C   0  0  0  0  0  0  0  0  0  0  0  0
    2.8660   -4.2500    0.0000 C   0  0  0  0  0  0  0  0  0  0  0  0
    5.4641    1.2500    0.0000 C   0  0  0  0  0  0  0  0  0  0  0  0
    3.7320   -4.7500    0.0000 C   0  0  0  0  0  0  0  0  0  0  0  0
    4.5981    2.7500    0.0000 C   0  0  0  0  0  0  0  0  0  0  0  0
    6.3301    2.7500    0.0000 C   0  0  0  0  0  0  0  0  0  0  0  0
    4.5981    1.7500    0.0000 C   0  0  0  0  0  0  0  0  0  0  0  0
    6.3301    1.7500    0.0000 C   0  0  0  0  0  0  0  0  0  0  0  0
    2.0000   -2.7500    0.0000 C   0  0  0  0  0  0  0  0  0  0  0  0
    5.4641   -4.7500    0.0000 C   0  0  0  0  0  0  0  0  0  0  0  0
    5.4641    0.2500    0.0000 C   0  0  0  0  0  0  0  0  0  0  0  0
    6.3301    4.7500    0.0000 C   0  0  0  0  0  0  0  0  0  0  0  0
    4.5981   -1.2500    0.0000 C   0  0  0  0  0  0  0  0  0  0  0  0
    4.5981   -0.2500    0.0000 C   0  0  0  0  0  0  0  0  0  0  0  0
    5.1350   -2.9400    0.0000 H   0  0  0  0  0  0  0  0  0  0  0  0
    5.2520    4.8326    0.0000 H   0  0  0  0  0  0  0  0  0  0  0  0
    4.8535    4.1423    0.0000 H   0  0  0  0  0  0  0  0  0  0  0  0
    2.3291   -4.5600    0.0000 H   0  0  0  0  0  0  0  0  0  0  0  0
    3.7320   -5.3700    0.0000 H   0  0  0  0  0  0  0  0  0  0  0  0
    4.0611    3.0600    0.0000 H   0  0  0  0  0  0  0  0  0  0  0  0
    6.8671    3.0600    0.0000 H   0  0  0  0  0  0  0  0  0  0  0  0
    3.1951   -1.4400    0.0000 H   0  0  0  0  0  0  0  0  0  0  0  0
    4.0611    1.4400    0.0000 H   0  0  0  0  0  0  0  0  0  0  0  0
    6.8671    1.4400    0.0000 H   0  0  0  0  0  0  0  0  0  0  0  0
    2.3100   -2.2131    0.0000 H   0  0  0  0  0  0  0  0  0  0  0  0
    1.4631   -2.4400    0.0000 H   0  0  0  0  0  0  0  0  0  0  0  0
    1.6900   -3.2869    0.0000 H   0  0  0  0  0  0  0  0  0  0  0  0
    5.1541   -5.2869    0.0000 H   0  0  0  0  0  0  0  0  0  0  0  0
    6.0010   -5.0600    0.0000 H   0  0  0  0  0  0  0  0  0  0  0  0
    5.7741   -4.2131    0.0000 H   0  0  0  0  0  0  0  0  0  0  0  0
    6.0010   -0.0600    0.0000 H   0  0  0  0  0  0  0  0  0  0  0  0
    6.6401    4.2131    0.0000 H   0  0  0  0  0  0  0  0  0  0  0  0
    6.8671    5.0600    0.0000 H   0  0  0  0  0  0  0  0  0  0  0  0
    6.0201    5.2869    0.0000 H   0  0  0  0  0  0  0  0  0  0  0  0
    4.0611    0.0600    0.0000 H   0  0  0  0  0  0  0  0  0  0  0  0
  1 20  2  0  0  0  0
  2  3  1  0  0  0  0
  2 20  1  0  0  0  0
  2 29  1  0  0  0  0
  3  4  2  0  0  0  0
  3  7  1  0  0  0  0
  4  9  1  0  0  0  0
  4 16  1  0  0  0  0
  5  8  1  0  0  0  0
  5 12  2  0  0  0  0
  5 13  1  0  0  0  0
  6  7  2  0  0  0  0
  6 11  1  0  0  0  0
  6 17  1  0  0  0  0
  7 22  1  0  0  0  0
  8 19  1  0  0  0  0
  8 23  1  0  0  0  0
  8 24  1  0  0  0  0
  9 11  2  0  0  0  0
  9 25  1  0  0  0  0
 10 14  2  0  0  0  0
 10 15  1  0  0  0  0
 10 18  1  0  0  0  0
 11 26  1  0  0  0  0
 12 14  1  0  0  0  0
 12 27  1  0  0  0  0
 13 15  2  0  0  0  0
 13 28  1  0  0  0  0
 14 30  1  0  0  0  0
 15 31  1  0  0  0  0
 16 32  1  0  0  0  0
 16 33  1  0  0  0  0
 16 34  1  0  0  0  0
 17 35  1  0  0  0  0
 17 36  1  0  0  0  0
 17 37  1  0  0  0  0
 18 21  2  0  0  0  0
 18 38  1  0  0  0  0
 19 39  1  0  0  0  0
 19 40  1  0  0  0  0
 19 41  1  0  0  0  0
 20 21  1  0  0  0  0
 21 42  1  0  0  0  0
M  END
> <PUBCHEM_COMPOUND_CID>
18226064

> <PUBCHEM_COMPOUND_CANONICALIZED>
1

> <PUBCHEM_CACTVS_COMPLEXITY>
355

> <PUBCHEM_CACTVS_HBOND_ACCEPTOR>
1

> <PUBCHEM_CACTVS_HBOND_DONOR>
1

> <PUBCHEM_CACTVS_ROTATABLE_BOND>
4

> <PUBCHEM_CACTVS_SUBSKEYS>
AAADceB6IAAAAAAAAAAAAAAAAAAAAAAAAAAwYAAAAAAAAAABQAAAHgAQAAAADAiBmAAywILAAACIAiVSUACCAAAhAgAIiAAAZMgIICLAkZGEIAhglADIyYcQgMAOQAAAQAACAACAAACAAAQAAAAAAAAAAA==

> <PUBCHEM_IUPAC_OPENEYE_NAME>
(E)-N-(2,5-dimethylphenyl)-3-(4-ethylphenyl)prop-2-enamide

> <PUBCHEM_IUPAC_CAS_NAME>
(E)-N-(2,5-dimethylphenyl)-3-(4-ethylphenyl)-2-propenamide

> <PUBCHEM_IUPAC_NAME>
(E)-N-(2,5-dimethylphenyl)-3-(4-ethylphenyl)prop-2-enamide

> <PUBCHEM_IUPAC_SYSTEMATIC_NAME>
(E)-N-(2,5-dimethylphenyl)-3-(4-ethylphenyl)prop-2-enamide

> <PUBCHEM_IUPAC_TRADITIONAL_NAME>
(E)-N-(2,5-dimethylphenyl)-3-(4-ethylphenyl)acrylamide

> <PUBCHEM_IUPAC_INCHI>
InChI=1S/C19H21NO/c1-4-16-7-9-17(10-8-16)11-12-19(21)20-18-13-14(2)5-6-15(18)3/h5-13H,4H2,1-3H3,(H,20,21)/b12-11+

> <PUBCHEM_IUPAC_INCHIKEY>
PJCAOZUTFZHKNV-VAWYXSNFSA-N

> <PUBCHEM_XLOGP3>
4.4

> <PUBCHEM_EXACT_MASS>
279.162314

> <PUBCHEM_MOLECULAR_FORMULA>
C19H21NO

> <PUBCHEM_MOLECULAR_WEIGHT>
279.37614

> <PUBCHEM_OPENEYE_CAN_SMILES>
CCC1=CC=C(C=C1)C=CC(=O)NC2=C(C=CC(=C2)C)C

> <PUBCHEM_OPENEYE_ISO_SMILES>
CCC1=CC=C(C=C1)/C=C/C(=O)NC2=C(C=CC(=C2)C)C

> <PUBCHEM_CACTVS_TPSA>
29.1

> <PUBCHEM_MONOISOTOPIC_WEIGHT>
279.162314

> <PUBCHEM_TOTAL_CHARGE>
0

> <PUBCHEM_HEAVY_ATOM_COUNT>
21

> <PUBCHEM_ATOM_DEF_STEREO_COUNT>
0

> <PUBCHEM_ATOM_UDEF_STEREO_COUNT>
0

> <PUBCHEM_BOND_DEF_STEREO_COUNT>
1

> <PUBCHEM_BOND_UDEF_STEREO_COUNT>
0

> <PUBCHEM_ISOTOPIC_ATOM_COUNT>
0

> <PUBCHEM_COMPONENT_COUNT>
1

> <PUBCHEM_CACTVS_TAUTO_COUNT>
2

> <PUBCHEM_COORDINATE_TYPE>
1
5
255

> <PUBCHEM_BONDANNOTATIONS>
10  14  8
10  15  8
12  14  8
13  15  8
3  4  8
3  7  8
4  9  8
5  12  8
5  13  8
6  11  8
6  7  8
9  11  8

$$$$
18226373
  -OEChem-11301217222D

 48 49  0     0  0  0  0  0  0999 V2000
    6.3301   -1.7500    0.0000 O   0  0  0  0  0  0  0  0  0  0  0  0
    4.5981   -1.7500    0.0000 N   0  0  0  0  0  0  0  0  0  0  0  0
    4.5981   -2.7500    0.0000 C   0  0  0  0  0  0  0  0  0  0  0  0
    3.7320   -3.2500    0.0000 C   0  0  0  0  0  0  0  0  0  0  0  0
    5.4641   -3.2500    0.0000 C   0  0  0  0  0  0  0  0  0  0  0  0
    2.8660   -2.7500    0.0000 C   0  0  0  0  0  0  0  0  0  0  0  0
    6.3301   -2.7500    0.0000 C   0  0  0  0  0  0  0  0  0  0  0  0
    3.7320   -4.2500    0.0000 C   0  0  0  0  0  0  0  0  0  0  0  0
    5.4641   -4.2500    0.0000 C   0  0  0  0  0  0  0  0  0  0  0  0
    4.5981   -4.7500    0.0000 C   0  0  0  0  0  0  0  0  0  0  0  0
    2.0000   -3.2500    0.0000 C   0  0  0  0  0  0  0  0  0  0  0  0
    7.1962   -3.2500    0.0000 C   0  0  0  0  0  0  0  0  0  0  0  0
    5.4641   -1.2500    0.0000 C   0  0  0  0  0  0  0  0  0  0  0  0
    6.3301    3.2500    0.0000 C   0  0  0  0  0  0  0  0  0  0  0  0
    6.3301    1.2500    0.0000 C   0  0  0  0  0  0  0  0  0  0  0  0
    6.3301    4.2500    0.0000 C   0  0  0  0  0  0  0  0  0  0  0  0
    5.4641   -0.2500    0.0000 C   0  0  0  0  0  0  0  0  0  0  0  0
    5.4641    2.7500    0.0000 C   0  0  0  0  0  0  0  0  0  0  0  0
    7.1962    2.7500    0.0000 C   0  0  0  0  0  0  0  0  0  0  0  0
    5.4641    1.7500    0.0000 C   0  0  0  0  0  0  0  0  0  0  0  0
    7.1962    1.7500    0.0000 C   0  0  0  0  0  0  0  0  0  0  0  0
    6.3301    0.2500    0.0000 C   0  0  0  0  0  0  0  0  0  0  0  0
    7.1962    4.7500    0.0000 C   0  0  0  0  0  0  0  0  0  0  0  0
    3.2646   -2.2750    0.0000 H   0  0  0  0  0  0  0  0  0  0  0  0
    2.4675   -2.2750    0.0000 H   0  0  0  0  0  0  0  0  0  0  0  0
    6.7287   -2.2750    0.0000 H   0  0  0  0  0  0  0  0  0  0  0  0
    5.9316   -2.2750    0.0000 H   0  0  0  0  0  0  0  0  0  0  0  0
    3.1951   -4.5600    0.0000 H   0  0  0  0  0  0  0  0  0  0  0  0
    6.0010   -4.5600    0.0000 H   0  0  0  0  0  0  0  0  0  0  0  0
    4.5981   -5.3700    0.0000 H   0  0  0  0  0  0  0  0  0  0  0  0
    4.0611   -1.4400    0.0000 H   0  0  0  0  0  0  0  0  0  0  0  0
    1.6900   -2.7131    0.0000 H   0  0  0  0  0  0  0  0  0  0  0  0
    1.4631   -3.5600    0.0000 H   0  0  0  0  0  0  0  0  0  0  0  0
    2.3100   -3.7869    0.0000 H   0  0  0  0  0  0  0  0  0  0  0  0
    6.8862   -3.7869    0.0000 H   0  0  0  0  0  0  0  0  0  0  0  0
    7.7331   -3.5600    0.0000 H   0  0  0  0  0  0  0  0  0  0  0  0
    7.5062   -2.7131    0.0000 H   0  0  0  0  0  0  0  0  0  0  0  0
    6.1181    4.8326    0.0000 H   0  0  0  0  0  0  0  0  0  0  0  0
    5.7196    4.1423    0.0000 H   0  0  0  0  0  0  0  0  0  0  0  0
    4.9272    3.0600    0.0000 H   0  0  0  0  0  0  0  0  0  0  0  0
    7.7331    3.0600    0.0000 H   0  0  0  0  0  0  0  0  0  0  0  0
    4.9272    0.0600    0.0000 H   0  0  0  0  0  0  0  0  0  0  0  0
    4.9272    1.4400    0.0000 H   0  0  0  0  0  0  0  0  0  0  0  0
    7.7331    1.4400    0.0000 H   0  0  0  0  0  0  0  0  0  0  0  0
    6.8671   -0.0600    0.0000 H   0  0  0  0  0  0  0  0  0  0  0  0
    7.5062    4.2131    0.0000 H   0  0  0  0  0  0  0  0  0  0  0  0
    7.7331    5.0600    0.0000 H   0  0  0  0  0  0  0  0  0  0  0  0
    6.8862    5.2869    0.0000 H   0  0  0  0  0  0  0  0  0  0  0  0
  1 13  2  0  0  0  0
  2  3  1  0  0  0  0
  2 13  1  0  0  0  0
  2 31  1  0  0  0  0
  3  4  2  0  0  0  0
  3  5  1  0  0  0  0
  4  6  1  0  0  0  0
  4  8  1  0  0  0  0
  5  7  1  0  0  0  0
  5  9  2  0  0  0  0
  6 11  1  0  0  0  0
  6 24  1  0  0  0  0
  6 25  1  0  0  0  0
  7 12  1  0  0  0  0
  7 26  1  0  0  0  0
  7 27  1  0  0  0  0
  8 10  2  0  0  0  0
  8 28  1  0  0  0  0
  9 10  1  0  0  0  0
  9 29  1  0  0  0  0
 10 30  1  0  0  0  0
 11 32  1  0  0  0  0
 11 33  1  0  0  0  0
 11 34  1  0  0  0  0
 12 35  1  0  0  0  0
 12 36  1  0  0  0  0
 12 37  1  0  0  0  0
 13 17  1  0  0  0  0
 14 16  1  0  0  0  0
 14 18  2  0  0  0  0
 14 19  1  0  0  0  0
 15 20  2  0  0  0  0
 15 21  1  0  0  0  0
 15 22  1  0  0  0  0
 16 23  1  0  0  0  0
 16 38  1  0  0  0  0
 16 39  1  0  0  0  0
 17 22  2  0  0  0  0
 17 42  1  0  0  0  0
 18 20  1  0  0  0  0
 18 40  1  0  0  0  0
 19 21  2  0  0  0  0
 19 41  1  0  0  0  0
 20 43  1  0  0  0  0
 21 44  1  0  0  0  0
 22 45  1  0  0  0  0
 23 46  1  0  0  0  0
 23 47  1  0  0  0  0
 23 48  1  0  0  0  0
M  END
> <PUBCHEM_COMPOUND_CID>
18226373

> <PUBCHEM_COMPOUND_CANONICALIZED>
1

> <PUBCHEM_CACTVS_COMPLEXITY>
369

> <PUBCHEM_CACTVS_HBOND_ACCEPTOR>
1

> <PUBCHEM_CACTVS_HBOND_DONOR>
1

> <PUBCHEM_CACTVS_ROTATABLE_BOND>
6

> <PUBCHEM_CACTVS_SUBSKEYS>
AAADceB6IAAAAAAAAAAAAAAAAAAAAAAAAAAwYAAAAAAAAAABQAAAHgAQAAAADAiBmAAywILAAACIAiVSUACCAAAhAAAIiAAARMgIICLAkZGEIAhglADIyYcQgMAOQAACAAACAACAAAQAAAQAAAAAAAAAAA==

> <PUBCHEM_IUPAC_OPENEYE_NAME>
(E)-N-(2,6-diethylphenyl)-3-(4-ethylphenyl)prop-2-enamide

> <PUBCHEM_IUPAC_CAS_NAME>
(E)-N-(2,6-diethylphenyl)-3-(4-ethylphenyl)-2-propenamide

> <PUBCHEM_IUPAC_NAME>
(E)-N-(2,6-diethylphenyl)-3-(4-ethylphenyl)prop-2-enamide

> <PUBCHEM_IUPAC_SYSTEMATIC_NAME>
(E)-N-(2,6-diethylphenyl)-3-(4-ethylphenyl)prop-2-enamide

> <PUBCHEM_IUPAC_TRADITIONAL_NAME>
(E)-N-(2,6-diethylphenyl)-3-(4-ethylphenyl)acrylamide

> <PUBCHEM_IUPAC_INCHI>
InChI=1S/C21H25NO/c1-4-16-10-12-17(13-11-16)14-15-20(23)22-21-18(5-2)8-7-9-19(21)6-3/h7-15H,4-6H2,1-3H3,(H,22,23)/b15-14+

> <PUBCHEM_IUPAC_INCHIKEY>
DMZWFQTTZDKAJJ-CCEZHUSRSA-N

> <PUBCHEM_XLOGP3>
4.7

> <PUBCHEM_EXACT_MASS>
307.193614

> <PUBCHEM_MOLECULAR_FORMULA>
C21H25NO

> <PUBCHEM_MOLECULAR_WEIGHT>
307.4293

> <PUBCHEM_OPENEYE_CAN_SMILES>
CCC1=CC=C(C=C1)C=CC(=O)NC2=C(C=CC=C2CC)CC

> <PUBCHEM_OPENEYE_ISO_SMILES>
CCC1=CC=C(C=C1)/C=C/C(=O)NC2=C(C=CC=C2CC)CC

> <PUBCHEM_CACTVS_TPSA>
29.1

> <PUBCHEM_MONOISOTOPIC_WEIGHT>
307.193614

> <PUBCHEM_TOTAL_CHARGE>
0

> <PUBCHEM_HEAVY_ATOM_COUNT>
23

> <PUBCHEM_ATOM_DEF_STEREO_COUNT>
0

> <PUBCHEM_ATOM_UDEF_STEREO_COUNT>
0

> <PUBCHEM_BOND_DEF_STEREO_COUNT>
1

> <PUBCHEM_BOND_UDEF_STEREO_COUNT>
0

> <PUBCHEM_ISOTOPIC_ATOM_COUNT>
0

> <PUBCHEM_COMPONENT_COUNT>
1

> <PUBCHEM_CACTVS_TAUTO_COUNT>
2

> <PUBCHEM_COORDINATE_TYPE>
1
5
255

> <PUBCHEM_BONDANNOTATIONS>
14  18  8
14  19  8
15  20  8
15  21  8
18  20  8
19  21  8
3  4  8
3  5  8
4  8  8
5  9  8
8  10  8
9  10  8

$$$$
