1153568
  -OEChem-11301214562D

 38 39  0     0  0  0  0  0  0999 V2000
    2.2635   -2.2666    0.0000 I   0  0  0  0  0  0  0  0  0  0  0  0
    2.4896   -0.5494    0.0000 O   0  0  0  0  0  0  0  0  0  0  0  0
    4.0898    0.1134    0.0000 N   0  0  0  0  0  0  0  0  0  0  0  0
    3.7071    1.0373    0.0000 C   0  0  0  0  0  0  0  0  0  0  0  0
    2.7071    1.0373    0.0000 C   0  0  0  0  0  0  0  0  0  0  0  0
    4.4142    1.7444    0.0000 C   0  0  0  0  0  0  0  0  0  0  0  0
    2.0000    1.7444    0.0000 C   0  0  0  0  0  0  0  0  0  0  0  0
    4.4142    2.7444    0.0000 C   0  0  0  0  0  0  0  0  0  0  0  0
    2.0000    2.7444    0.0000 C   0  0  0  0  0  0  0  0  0  0  0  0
    3.7071    3.4515    0.0000 C   0  0  0  0  0  0  0  0  0  0  0  0
    2.7071    3.4515    0.0000 C   0  0  0  0  0  0  0  0  0  0  0  0
    3.4810   -0.6799    0.0000 C   0  0  0  0  0  0  0  0  0  0  0  0
    3.8637   -1.6038    0.0000 C   0  0  0  0  0  0  0  0  0  0  0  0
    3.2550   -2.3971    0.0000 C   0  0  0  0  0  0  0  0  0  0  0  0
    4.8552   -1.7343    0.0000 C   0  0  0  0  0  0  0  0  0  0  0  0
    3.6376   -3.3210    0.0000 C   0  0  0  0  0  0  0  0  0  0  0  0
    5.2378   -2.6582    0.0000 C   0  0  0  0  0  0  0  0  0  0  0  0
    4.6291   -3.4515    0.0000 C   0  0  0  0  0  0  0  0  0  0  0  0
    3.3626    0.5218    0.0000 H   0  0  0  0  0  0  0  0  0  0  0  0
    4.7242    1.2075    0.0000 H   0  0  0  0  0  0  0  0  0  0  0  0
    5.0131    1.9049    0.0000 H   0  0  0  0  0  0  0  0  0  0  0  0
    2.1702    0.7273    0.0000 H   0  0  0  0  0  0  0  0  0  0  0  0
    2.8676    0.4385    0.0000 H   0  0  0  0  0  0  0  0  0  0  0  0
    1.4011    1.9049    0.0000 H   0  0  0  0  0  0  0  0  0  0  0  0
    1.6900    1.2075    0.0000 H   0  0  0  0  0  0  0  0  0  0  0  0
    5.0131    2.5840    0.0000 H   0  0  0  0  0  0  0  0  0  0  0  0
    4.7242    3.2814    0.0000 H   0  0  0  0  0  0  0  0  0  0  0  0
    1.6900    3.2814    0.0000 H   0  0  0  0  0  0  0  0  0  0  0  0
    1.4011    2.5840    0.0000 H   0  0  0  0  0  0  0  0  0  0  0  0
    4.2440    3.7615    0.0000 H   0  0  0  0  0  0  0  0  0  0  0  0
    3.5466    4.0504    0.0000 H   0  0  0  0  0  0  0  0  0  0  0  0
    2.8676    4.0504    0.0000 H   0  0  0  0  0  0  0  0  0  0  0  0
    2.1702    3.7615    0.0000 H   0  0  0  0  0  0  0  0  0  0  0  0
    4.7045    0.0325    0.0000 H   0  0  0  0  0  0  0  0  0  0  0  0
    5.2326   -1.2424    0.0000 H   0  0  0  0  0  0  0  0  0  0  0  0
    3.2602   -3.8129    0.0000 H   0  0  0  0  0  0  0  0  0  0  0  0
    5.8525   -2.7391    0.0000 H   0  0  0  0  0  0  0  0  0  0  0  0
    4.8663   -4.0244    0.0000 H   0  0  0  0  0  0  0  0  0  0  0  0
  1 14  1  0  0  0  0
  2 12  2  0  0  0  0
  3  4  1  0  0  0  0
  3 12  1  0  0  0  0
  3 34  1  0  0  0  0
  4  5  1  0  0  0  0
  4  6  1  0  0  0  0
  4 19  1  0  0  0  0
  5  7  1  0  0  0  0
  5 22  1  0  0  0  0
  5 23  1  0  0  0  0
  6  8  1  0  0  0  0
  6 20  1  0  0  0  0
  6 21  1  0  0  0  0
  7  9  1  0  0  0  0
  7 24  1  0  0  0  0
  7 25  1  0  0  0  0
  8 10  1  0  0  0  0
  8 26  1  0  0  0  0
  8 27  1  0  0  0  0
  9 11  1  0  0  0  0
  9 28  1  0  0  0  0
  9 29  1  0  0  0  0
 10 11  1  0  0  0  0
 10 30  1  0  0  0  0
 10 31  1  0  0  0  0
 11 32  1  0  0  0  0
 11 33  1  0  0  0  0
 12 13  1  0  0  0  0
 13 14  1  0  0  0  0
 13 15  2  0  0  0  0
 14 16  2  0  0  0  0
 15 17  1  0  0  0  0
 15 35  1  0  0  0  0
 16 18  1  0  0  0  0
 16 36  1  0  0  0  0
 17 18  2  0  0  0  0
 17 37  1  0  0  0  0
 18 38  1  0  0  0  0
M  END
> <PUBCHEM_COMPOUND_CID>
1153568

> <PUBCHEM_COMPOUND_CANONICALIZED>
1

> <PUBCHEM_CACTVS_COMPLEXITY>
261

> <PUBCHEM_CACTVS_HBOND_ACCEPTOR>
1

> <PUBCHEM_CACTVS_HBOND_DONOR>
1

> <PUBCHEM_CACTVS_ROTATABLE_BOND>
2

> <PUBCHEM_CACTVS_SUBSKEYS>
AAADceByIAAAAgAAAAAAAAAAAAAAAAAAAAAwAAAAAAAYAAABAAAAHgAwAAAADCjDmAQwAILAAACIAiFSEACCAAAkAAAIiIEIBMgIIDKAlRGEIQhglgCIiYcYiICOAAAAAAAAAAAAAAAAAAAAAAAAAAAAAA==

> <PUBCHEM_IUPAC_OPENEYE_NAME>
N-cyclooctyl-2-iodo-benzamide

> <PUBCHEM_IUPAC_CAS_NAME>
N-cyclooctyl-2-iodobenzamide

> <PUBCHEM_IUPAC_NAME>
N-cyclooctyl-2-iodobenzamide

> <PUBCHEM_IUPAC_SYSTEMATIC_NAME>
N-cyclooctyl-2-iodanyl-benzamide

> <PUBCHEM_IUPAC_TRADITIONAL_NAME>
N-cyclooctyl-2-iodo-benzamide

> <PUBCHEM_IUPAC_INCHI>
InChI=1S/C15H20INO/c16-14-11-7-6-10-13(14)15(18)17-12-8-4-2-1-3-5-9-12/h6-7,10-12H,1-5,8-9H2,(H,17,18)

> <PUBCHEM_IUPAC_INCHIKEY>
OMZXGDFMNCNDCH-UHFFFAOYSA-N

> <PUBCHEM_XLOGP3>
4.1

> <PUBCHEM_EXACT_MASS>
357.058962

> <PUBCHEM_MOLECULAR_FORMULA>
C15H20INO

> <PUBCHEM_MOLECULAR_WEIGHT>
357.22987

> <PUBCHEM_OPENEYE_CAN_SMILES>
C1CCCC(CCC1)NC(=O)C2=CC=CC=C2I

> <PUBCHEM_OPENEYE_ISO_SMILES>
C1CCCC(CCC1)NC(=O)C2=CC=CC=C2I

> <PUBCHEM_CACTVS_TPSA>
29.1

> <PUBCHEM_MONOISOTOPIC_WEIGHT>
357.058962

> <PUBCHEM_TOTAL_CHARGE>
0

> <PUBCHEM_HEAVY_ATOM_COUNT>
18

> <PUBCHEM_ATOM_DEF_STEREO_COUNT>
0

> <PUBCHEM_ATOM_UDEF_STEREO_COUNT>
0

> <PUBCHEM_BOND_DEF_STEREO_COUNT>
0

> <PUBCHEM_BOND_UDEF_STEREO_COUNT>
0

> <PUBCHEM_ISOTOPIC_ATOM_COUNT>
0

> <PUBCHEM_COMPONENT_COUNT>
1

> <PUBCHEM_CACTVS_TAUTO_COUNT>
2

> <PUBCHEM_COORDINATE_TYPE>
1
5
255

> <PUBCHEM_BONDANNOTATIONS>
13  14  8
13  15  8
14  16  8
15  17  8
16  18  8
17  18  8

$$$$
1162947
  -OEChem-11301214572D

 32 33  0     1  0  0  0  0  0999 V2000
    8.5458    2.8345    0.0000 Cl  0  0  0  0  0  0  0  0  0  0  0  0
    7.9244    0.9335    0.0000 O   0  0  0  0  0  0  0  0  0  0  0  0
    4.6783   -2.2452    0.0000 N   0  0  0  0  0  0  0  0  0  0  0  0
    6.2781    1.4715    0.0000 N   0  0  0  0  0  0  0  0  0  0  0  0
    4.9889    0.3148    0.0000 C   0  0  0  0  0  0  0  0  0  0  0  0
    5.9674    0.5210    0.0000 C   0  0  1  0  0  0  0  0  0  0  0  0
    4.6783   -0.6357    0.0000 C   0  0  0  0  0  0  0  0  0  0  0  0
    3.7320   -0.9404    0.0000 C   0  0  0  0  0  0  0  0  0  0  0  0
    3.7320   -1.9404    0.0000 C   0  0  0  0  0  0  0  0  0  0  0  0
    5.2619   -1.4404    0.0000 C   0  0  0  0  0  0  0  0  0  0  0  0
    6.6353   -0.2233    0.0000 C   0  0  0  0  0  0  0  0  0  0  0  0
    2.8660   -0.4404    0.0000 C   0  0  0  0  0  0  0  0  0  0  0  0
    2.8660   -2.4404    0.0000 C   0  0  0  0  0  0  0  0  0  0  0  0
    2.0000   -0.9404    0.0000 C   0  0  0  0  0  0  0  0  0  0  0  0
    2.0000   -1.9404    0.0000 C   0  0  0  0  0  0  0  0  0  0  0  0
    7.2566    1.6778    0.0000 C   0  0  0  0  0  0  0  0  0  0  0  0
    7.5673    2.6283    0.0000 C   0  0  0  0  0  0  0  0  0  0  0  0
    4.9684    0.9345    0.0000 H   0  0  0  0  0  0  0  0  0  0  0  0
    4.3751    0.4022    0.0000 H   0  0  0  0  0  0  0  0  0  0  0  0
    5.5534    0.9825    0.0000 H   0  0  0  0  0  0  0  0  0  0  0  0
    5.8819   -1.4404    0.0000 H   0  0  0  0  0  0  0  0  0  0  0  0
    6.1738   -0.6373    0.0000 H   0  0  0  0  0  0  0  0  0  0  0  0
    7.0494   -0.6847    0.0000 H   0  0  0  0  0  0  0  0  0  0  0  0
    7.0968    0.1908    0.0000 H   0  0  0  0  0  0  0  0  0  0  0  0
    4.8709   -2.8345    0.0000 H   0  0  0  0  0  0  0  0  0  0  0  0
    5.8640    1.9330    0.0000 H   0  0  0  0  0  0  0  0  0  0  0  0
    2.8660    0.1796    0.0000 H   0  0  0  0  0  0  0  0  0  0  0  0
    2.8660   -3.0604    0.0000 H   0  0  0  0  0  0  0  0  0  0  0  0
    1.4631   -0.6304    0.0000 H   0  0  0  0  0  0  0  0  0  0  0  0
    1.4631   -2.2504    0.0000 H   0  0  0  0  0  0  0  0  0  0  0  0
    7.5467    3.2479    0.0000 H   0  0  0  0  0  0  0  0  0  0  0  0
    6.9534    2.7156    0.0000 H   0  0  0  0  0  0  0  0  0  0  0  0
  1 17  1  0  0  0  0
  2 16  2  0  0  0  0
  3  9  1  0  0  0  0
  3 10  1  0  0  0  0
  3 25  1  0  0  0  0
  6  4  1  6  0  0  0
  4 16  1  0  0  0  0
  4 26  1  0  0  0  0
  5  6  1  0  0  0  0
  5  7  1  0  0  0  0
  5 18  1  0  0  0  0
  5 19  1  0  0  0  0
  6 11  1  0  0  0  0
  6 20  1  0  0  0  0
  7  8  1  0  0  0  0
  7 10  2  0  0  0  0
  8  9  1  0  0  0  0
  8 12  2  0  0  0  0
  9 13  2  0  0  0  0
 10 21  1  0  0  0  0
 11 22  1  0  0  0  0
 11 23  1  0  0  0  0
 11 24  1  0  0  0  0
 12 14  1  0  0  0  0
 12 27  1  0  0  0  0
 13 15  1  0  0  0  0
 13 28  1  0  0  0  0
 14 15  2  0  0  0  0
 14 29  1  0  0  0  0
 15 30  1  0  0  0  0
 16 17  1  0  0  0  0
 17 31  1  0  0  0  0
 17 32  1  0  0  0  0
M  END
> <PUBCHEM_COMPOUND_CID>
1162947

> <PUBCHEM_COMPOUND_CANONICALIZED>
1

> <PUBCHEM_CACTVS_COMPLEXITY>
272

> <PUBCHEM_CACTVS_HBOND_ACCEPTOR>
1

> <PUBCHEM_CACTVS_HBOND_DONOR>
2

> <PUBCHEM_CACTVS_ROTATABLE_BOND>
4

> <PUBCHEM_CACTVS_SUBSKEYS>
AAADccBzIAAEAAAAAAAAAAAAAAAAAWAAAAAwAAAAAAAAAFgB8AAAHgIQAAAADCvBnkQ+wPLJkACoAzV3VACCgCAxAiAI2aA4ZJhIIOLAkZHEIAhglgDIyAcQgMAOgAAAAAACAAAAAAAAAAQAAAAAAAAAAA==

> <PUBCHEM_IUPAC_OPENEYE_NAME>
2-chloro-N-[(1R)-2-(1H-indol-3-yl)-1-methyl-ethyl]acetamide

> <PUBCHEM_IUPAC_CAS_NAME>
2-chloro-N-[(2R)-1-(1H-indol-3-yl)propan-2-yl]acetamide

> <PUBCHEM_IUPAC_NAME>
2-chloro-N-[(2R)-1-(1H-indol-3-yl)propan-2-yl]acetamide

> <PUBCHEM_IUPAC_SYSTEMATIC_NAME>
2-chloranyl-N-[(2R)-1-(1H-indol-3-yl)propan-2-yl]ethanamide

> <PUBCHEM_IUPAC_TRADITIONAL_NAME>
2-chloro-N-[(1R)-2-(1H-indol-3-yl)-1-methyl-ethyl]acetamide

> <PUBCHEM_IUPAC_INCHI>
InChI=1S/C13H15ClN2O/c1-9(16-13(17)7-14)6-10-8-15-12-5-3-2-4-11(10)12/h2-5,8-9,15H,6-7H2,1H3,(H,16,17)/t9-/m1/s1

> <PUBCHEM_IUPAC_INCHIKEY>
HWTUYWOUWHLNKW-SECBINFHSA-N

> <PUBCHEM_XLOGP3>
2.9

> <PUBCHEM_EXACT_MASS>
250.087291

> <PUBCHEM_MOLECULAR_FORMULA>
C13H15ClN2O

> <PUBCHEM_MOLECULAR_WEIGHT>
250.724

> <PUBCHEM_OPENEYE_CAN_SMILES>
CC(CC1=CNC2=CC=CC=C21)NC(=O)CCl

> <PUBCHEM_OPENEYE_ISO_SMILES>
C[C@H](CC1=CNC2=CC=CC=C21)NC(=O)CCl

> <PUBCHEM_CACTVS_TPSA>
44.9

> <PUBCHEM_MONOISOTOPIC_WEIGHT>
250.087291

> <PUBCHEM_TOTAL_CHARGE>
0

> <PUBCHEM_HEAVY_ATOM_COUNT>
17

> <PUBCHEM_ATOM_DEF_STEREO_COUNT>
1

> <PUBCHEM_ATOM_UDEF_STEREO_COUNT>
0

> <PUBCHEM_BOND_DEF_STEREO_COUNT>
0

> <PUBCHEM_BOND_UDEF_STEREO_COUNT>
0

> <PUBCHEM_ISOTOPIC_ATOM_COUNT>
0

> <PUBCHEM_COMPONENT_COUNT>
1

> <PUBCHEM_CACTVS_TAUTO_COUNT>
2

> <PUBCHEM_COORDINATE_TYPE>
1
5
255

> <PUBCHEM_BONDANNOTATIONS>
12  14  8
13  15  8
14  15  8
3  10  8
3  9  8
6  4  6
7  10  8
7  8  8
8  12  8
8  9  8
9  13  8

$$$$
1162949
  -OEChem-11301214572D

 32 33  0     1  0  0  0  0  0999 V2000
    8.5458    2.8345    0.0000 Cl  0  0  0  0  0  0  0  0  0  0  0  0
    7.9244    0.9335    0.0000 O   0  0  0  0  0  0  0  0  0  0  0  0
    4.6783   -2.2452    0.0000 N   0  0  0  0  0  0  0  0  0  0  0  0
    6.2781    1.4715    0.0000 N   0  0  0  0  0  0  0  0  0  0  0  0
    4.9889    0.3148    0.0000 C   0  0  0  0  0  0  0  0  0  0  0  0
    5.9674    0.5210    0.0000 C   0  0  2  0  0  0  0  0  0  0  0  0
    4.6783   -0.6357    0.0000 C   0  0  0  0  0  0  0  0  0  0  0  0
    3.7320   -0.9404    0.0000 C   0  0  0  0  0  0  0  0  0  0  0  0
    3.7320   -1.9404    0.0000 C   0  0  0  0  0  0  0  0  0  0  0  0
    5.2619   -1.4404    0.0000 C   0  0  0  0  0  0  0  0  0  0  0  0
    6.6353   -0.2233    0.0000 C   0  0  0  0  0  0  0  0  0  0  0  0
    2.8660   -0.4404    0.0000 C   0  0  0  0  0  0  0  0  0  0  0  0
    2.8660   -2.4404    0.0000 C   0  0  0  0  0  0  0  0  0  0  0  0
    2.0000   -0.9404    0.0000 C   0  0  0  0  0  0  0  0  0  0  0  0
    2.0000   -1.9404    0.0000 C   0  0  0  0  0  0  0  0  0  0  0  0
    7.2566    1.6778    0.0000 C   0  0  0  0  0  0  0  0  0  0  0  0
    7.5673    2.6283    0.0000 C   0  0  0  0  0  0  0  0  0  0  0  0
    4.9684    0.9345    0.0000 H   0  0  0  0  0  0  0  0  0  0  0  0
    4.3751    0.4022    0.0000 H   0  0  0  0  0  0  0  0  0  0  0  0
    5.5534    0.9825    0.0000 H   0  0  0  0  0  0  0  0  0  0  0  0
    5.8819   -1.4404    0.0000 H   0  0  0  0  0  0  0  0  0  0  0  0
    6.1738   -0.6373    0.0000 H   0  0  0  0  0  0  0  0  0  0  0  0
    7.0494   -0.6847    0.0000 H   0  0  0  0  0  0  0  0  0  0  0  0
    7.0968    0.1908    0.0000 H   0  0  0  0  0  0  0  0  0  0  0  0
    4.8709   -2.8345    0.0000 H   0  0  0  0  0  0  0  0  0  0  0  0
    5.8640    1.9330    0.0000 H   0  0  0  0  0  0  0  0  0  0  0  0
    2.8660    0.1796    0.0000 H   0  0  0  0  0  0  0  0  0  0  0  0
    2.8660   -3.0604    0.0000 H   0  0  0  0  0  0  0  0  0  0  0  0
    1.4631   -0.6304    0.0000 H   0  0  0  0  0  0  0  0  0  0  0  0
    1.4631   -2.2504    0.0000 H   0  0  0  0  0  0  0  0  0  0  0  0
    7.5467    3.2479    0.0000 H   0  0  0  0  0  0  0  0  0  0  0  0
    6.9534    2.7156    0.0000 H   0  0  0  0  0  0  0  0  0  0  0  0
  1 17  1  0  0  0  0
  2 16  2  0  0  0  0
  3  9  1  0  0  0  0
  3 10  1  0  0  0  0
  3 25  1  0  0  0  0
  6  4  1  1  0  0  0
  4 16  1  0  0  0  0
  4 26  1  0  0  0  0
  5  6  1  0  0  0  0
  5  7  1  0  0  0  0
  5 18  1  0  0  0  0
  5 19  1  0  0  0  0
  6 11  1  0  0  0  0
  6 20  1  0  0  0  0
  7  8  1  0  0  0  0
  7 10  2  0  0  0  0
  8  9  1  0  0  0  0
  8 12  2  0  0  0  0
  9 13  2  0  0  0  0
 10 21  1  0  0  0  0
 11 22  1  0  0  0  0
 11 23  1  0  0  0  0
 11 24  1  0  0  0  0
 12 14  1  0  0  0  0
 12 27  1  0  0  0  0
 13 15  1  0  0  0  0
 13 28  1  0  0  0  0
 14 15  2  0  0  0  0
 14 29  1  0  0  0  0
 15 30  1  0  0  0  0
 16 17  1  0  0  0  0
 17 31  1  0  0  0  0
 17 32  1  0  0  0  0
M  END
> <PUBCHEM_COMPOUND_CID>
1162949

> <PUBCHEM_COMPOUND_CANONICALIZED>
1

> <PUBCHEM_CACTVS_COMPLEXITY>
272

> <PUBCHEM_CACTVS_HBOND_ACCEPTOR>
1

> <PUBCHEM_CACTVS_HBOND_DONOR>
2

> <PUBCHEM_CACTVS_ROTATABLE_BOND>
4

> <PUBCHEM_CACTVS_SUBSKEYS>
AAADccBzIAAEAAAAAAAAAAAAAAAAAWAAAAAwAAAAAAAAAFgB8AAAHgIQAAAADCvBnkQ+wPLJkACoAzV3VACCgCAxAiAI2aA4ZJhIIOLAkZHEIAhglgDIyAcQgMAOgAAAAAACAAAAAAAAAAQAAAAAAAAAAA==

> <PUBCHEM_IUPAC_OPENEYE_NAME>
2-chloro-N-[(1S)-2-(1H-indol-3-yl)-1-methyl-ethyl]acetamide

> <PUBCHEM_IUPAC_CAS_NAME>
2-chloro-N-[(2S)-1-(1H-indol-3-yl)propan-2-yl]acetamide

> <PUBCHEM_IUPAC_NAME>
2-chloro-N-[(2S)-1-(1H-indol-3-yl)propan-2-yl]acetamide

> <PUBCHEM_IUPAC_SYSTEMATIC_NAME>
2-chloranyl-N-[(2S)-1-(1H-indol-3-yl)propan-2-yl]ethanamide

> <PUBCHEM_IUPAC_TRADITIONAL_NAME>
2-chloro-N-[(1S)-2-(1H-indol-3-yl)-1-methyl-ethyl]acetamide

> <PUBCHEM_IUPAC_INCHI>
InChI=1S/C13H15ClN2O/c1-9(16-13(17)7-14)6-10-8-15-12-5-3-2-4-11(10)12/h2-5,8-9,15H,6-7H2,1H3,(H,16,17)/t9-/m0/s1

> <PUBCHEM_IUPAC_INCHIKEY>
HWTUYWOUWHLNKW-VIFPVBQESA-N

> <PUBCHEM_XLOGP3>
2.9

> <PUBCHEM_EXACT_MASS>
250.087291

> <PUBCHEM_MOLECULAR_FORMULA>
C13H15ClN2O

> <PUBCHEM_MOLECULAR_WEIGHT>
250.724

> <PUBCHEM_OPENEYE_CAN_SMILES>
CC(CC1=CNC2=CC=CC=C21)NC(=O)CCl

> <PUBCHEM_OPENEYE_ISO_SMILES>
C[C@@H](CC1=CNC2=CC=CC=C21)NC(=O)CCl

> <PUBCHEM_CACTVS_TPSA>
44.9

> <PUBCHEM_MONOISOTOPIC_WEIGHT>
250.087291

> <PUBCHEM_TOTAL_CHARGE>
0

> <PUBCHEM_HEAVY_ATOM_COUNT>
17

> <PUBCHEM_ATOM_DEF_STEREO_COUNT>
1

> <PUBCHEM_ATOM_UDEF_STEREO_COUNT>
0

> <PUBCHEM_BOND_DEF_STEREO_COUNT>
0

> <PUBCHEM_BOND_UDEF_STEREO_COUNT>
0

> <PUBCHEM_ISOTOPIC_ATOM_COUNT>
0

> <PUBCHEM_COMPONENT_COUNT>
1

> <PUBCHEM_CACTVS_TAUTO_COUNT>
2

> <PUBCHEM_COORDINATE_TYPE>
1
5
255

> <PUBCHEM_BONDANNOTATIONS>
12  14  8
13  15  8
14  15  8
3  10  8
3  9  8
6  4  5
7  10  8
7  8  8
8  12  8
8  9  8
9  13  8

$$$$
