35533053
  -OEChem-12041211482D

 42 44  0     0  0  0  0  0  0999 V2000
    4.5981    3.3170    0.0000 S   0  0  0  0  0  0  0  0  0  0  0  0
    4.5981   -0.6830    0.0000 S   0  0  0  0  0  0  0  0  0  0  0  0
    4.5981   -5.6830    0.0000 F   0  0  0  0  0  0  0  0  0  0  0  0
    5.5981   -4.6830    0.0000 F   0  0  0  0  0  0  0  0  0  0  0  0
    3.5981   -4.6830    0.0000 F   0  0  0  0  0  0  0  0  0  0  0  0
    5.5981    3.3170    0.0000 O   0  0  0  0  0  0  0  0  0  0  0  0
    3.5981    3.3170    0.0000 O   0  0  0  0  0  0  0  0  0  0  0  0
    3.5981   -0.6830    0.0000 O   0  0  0  0  0  0  0  0  0  0  0  0
    5.5981   -0.6830    0.0000 O   0  0  0  0  0  0  0  0  0  0  0  0
    4.5981   -3.6830    0.0000 O   0  0  0  0  0  0  0  0  0  0  0  0
    4.5981    4.3170    0.0000 N   0  0  0  0  0  0  0  0  0  0  0  0
    4.5981   -1.6830    0.0000 N   0  5  0  0  0  0  0  0  0  0  0  0
    5.4641    4.8170    0.0000 C   0  0  0  0  0  0  0  0  0  0  0  0
    6.4641    4.8170    0.0000 C   0  0  0  0  0  0  0  0  0  0  0  0
    5.9641    5.6830    0.0000 C   0  0  0  0  0  0  0  0  0  0  0  0
    4.5981    2.3170    0.0000 C   0  0  0  0  0  0  0  0  0  0  0  0
    3.7321    1.8170    0.0000 C   0  0  0  0  0  0  0  0  0  0  0  0
    5.4641    1.8170    0.0000 C   0  0  0  0  0  0  0  0  0  0  0  0
    4.5981    0.3170    0.0000 C   0  0  0  0  0  0  0  0  0  0  0  0
    3.7321    0.8170    0.0000 C   0  0  0  0  0  0  0  0  0  0  0  0
    5.4641    0.8170    0.0000 C   0  0  0  0  0  0  0  0  0  0  0  0
    3.7321   -2.1830    0.0000 C   0  0  0  0  0  0  0  0  0  0  0  0
    3.7321   -3.1830    0.0000 C   0  0  0  0  0  0  0  0  0  0  0  0
    2.8660   -1.6830    0.0000 C   0  0  0  0  0  0  0  0  0  0  0  0
    2.8660   -3.6830    0.0000 C   0  0  0  0  0  0  0  0  0  0  0  0
    2.0000   -2.1830    0.0000 C   0  0  0  0  0  0  0  0  0  0  0  0
    2.0000   -3.1830    0.0000 C   0  0  0  0  0  0  0  0  0  0  0  0
    4.5981   -4.6830    0.0000 C   0  0  0  0  0  0  0  0  0  0  0  0
    5.0257    5.2554    0.0000 H   0  0  0  0  0  0  0  0  0  0  0  0
    6.5718    4.2064    0.0000 H   0  0  0  0  0  0  0  0  0  0  0  0
    7.0467    5.0290    0.0000 H   0  0  0  0  0  0  0  0  0  0  0  0
    6.4391    6.0815    0.0000 H   0  0  0  0  0  0  0  0  0  0  0  0
    5.4892    6.0815    0.0000 H   0  0  0  0  0  0  0  0  0  0  0  0
    4.0611    4.6270    0.0000 H   0  0  0  0  0  0  0  0  0  0  0  0
    3.1951    2.1270    0.0000 H   0  0  0  0  0  0  0  0  0  0  0  0
    6.0010    2.1270    0.0000 H   0  0  0  0  0  0  0  0  0  0  0  0
    3.1951    0.5070    0.0000 H   0  0  0  0  0  0  0  0  0  0  0  0
    6.0010    0.5070    0.0000 H   0  0  0  0  0  0  0  0  0  0  0  0
    2.8660   -1.0630    0.0000 H   0  0  0  0  0  0  0  0  0  0  0  0
    2.8660   -4.3030    0.0000 H   0  0  0  0  0  0  0  0  0  0  0  0
    1.4631   -1.8730    0.0000 H   0  0  0  0  0  0  0  0  0  0  0  0
    1.4631   -3.4930    0.0000 H   0  0  0  0  0  0  0  0  0  0  0  0
  1  6  2  0  0  0  0
  1  7  2  0  0  0  0
  1 11  1  0  0  0  0
  1 16  1  0  0  0  0
  2  8  2  0  0  0  0
  2  9  2  0  0  0  0
  2 12  1  0  0  0  0
  2 19  1  0  0  0  0
  3 28  1  0  0  0  0
  4 28  1  0  0  0  0
  5 28  1  0  0  0  0
 10 23  1  0  0  0  0
 10 28  1  0  0  0  0
 11 13  1  0  0  0  0
 11 34  1  0  0  0  0
 12 22  1  0  0  0  0
 13 14  1  0  0  0  0
 13 15  1  0  0  0  0
 13 29  1  0  0  0  0
 14 15  1  0  0  0  0
 14 30  1  0  0  0  0
 14 31  1  0  0  0  0
 15 32  1  0  0  0  0
 15 33  1  0  0  0  0
 16 17  2  0  0  0  0
 16 18  1  0  0  0  0
 17 20  1  0  0  0  0
 17 35  1  0  0  0  0
 18 21  2  0  0  0  0
 18 36  1  0  0  0  0
 19 20  2  0  0  0  0
 19 21  1  0  0  0  0
 20 37  1  0  0  0  0
 21 38  1  0  0  0  0
 22 23  1  0  0  0  0
 22 24  2  0  0  0  0
 23 25  2  0  0  0  0
 24 26  1  0  0  0  0
 24 39  1  0  0  0  0
 25 27  1  0  0  0  0
 25 40  1  0  0  0  0
 26 27  2  0  0  0  0
 26 41  1  0  0  0  0
 27 42  1  0  0  0  0
M  CHG  1  12  -1
M  END
> <PUBCHEM_COMPOUND_CID>
35533053

> <PUBCHEM_COMPOUND_CANONICALIZED>
1

> <PUBCHEM_CACTVS_COMPLEXITY>
734

> <PUBCHEM_CACTVS_HBOND_ACCEPTOR>
10

> <PUBCHEM_CACTVS_HBOND_DONOR>
1

> <PUBCHEM_CACTVS_ROTATABLE_BOND>
7

> <PUBCHEM_CACTVS_SUBSKEYS>
AAADccB7OYBgAAAAAAAAAAAAGAAAAAAAAAAwYAAAAAAAAAABQAAAHwQQQAAACCzB0BQwx4BABAKAACRCQHDCCBAgIgAIiJgHbIgOJiKEsZuBMCBk0BEI6AeQQAAAAAgAAAAAEAAAEAAAAAAgAAAAAAAAAA==

> <PUBCHEM_IUPAC_OPENEYE_NAME>
[4-(cyclopropylsulfamoyl)phenyl]sulfonyl-[2-(trifluoromethoxy)phenyl]azanide

> <PUBCHEM_IUPAC_CAS_NAME>
[4-(cyclopropylsulfamoyl)phenyl]sulfonyl-[2-(trifluoromethoxy)phenyl]azanide

> <PUBCHEM_IUPAC_NAME>
[4-(cyclopropylsulfamoyl)phenyl]sulfonyl-[2-(trifluoromethoxy)phenyl]azanide

> <PUBCHEM_IUPAC_SYSTEMATIC_NAME>
[4-(cyclopropylsulfamoyl)phenyl]sulfonyl-[2-(trifluoromethyloxy)phenyl]azanide

> <PUBCHEM_IUPAC_TRADITIONAL_NAME>
[4-(cyclopropylsulfamoyl)phenyl]sulfonyl-[2-(trifluoromethoxy)phenyl]azanide

> <PUBCHEM_IUPAC_INCHI>
InChI=1S/C16H14F3N2O5S2/c17-16(18,19)26-15-4-2-1-3-14(15)21-28(24,25)13-9-7-12(8-10-13)27(22,23)20-11-5-6-11/h1-4,7-11,20H,5-6H2/q-1

> <PUBCHEM_IUPAC_INCHIKEY>
ZZCFEKJPNNNFMJ-UHFFFAOYSA-N

> <PUBCHEM_XLOGP3>
3

> <PUBCHEM_EXACT_MASS>
435.029623

> <PUBCHEM_MOLECULAR_FORMULA>
C16H14F3N2O5S2-

> <PUBCHEM_MOLECULAR_WEIGHT>
435.41797

> <PUBCHEM_OPENEYE_CAN_SMILES>
C1CC1NS(=O)(=O)C2=CC=C(C=C2)S(=O)(=O)[N-]C3=CC=CC=C3OC(F)(F)F

> <PUBCHEM_OPENEYE_ISO_SMILES>
C1CC1NS(=O)(=O)C2=CC=C(C=C2)S(=O)(=O)[N-]C3=CC=CC=C3OC(F)(F)F

> <PUBCHEM_CACTVS_TPSA>
107

> <PUBCHEM_MONOISOTOPIC_WEIGHT>
435.029623

> <PUBCHEM_TOTAL_CHARGE>
-1

> <PUBCHEM_HEAVY_ATOM_COUNT>
28

> <PUBCHEM_ATOM_DEF_STEREO_COUNT>
0

> <PUBCHEM_ATOM_UDEF_STEREO_COUNT>
0

> <PUBCHEM_BOND_DEF_STEREO_COUNT>
0

> <PUBCHEM_BOND_UDEF_STEREO_COUNT>
0

> <PUBCHEM_ISOTOPIC_ATOM_COUNT>
0

> <PUBCHEM_COMPONENT_COUNT>
1

> <PUBCHEM_CACTVS_TAUTO_COUNT>
1

> <PUBCHEM_COORDINATE_TYPE>
1
5
255

> <PUBCHEM_BONDANNOTATIONS>
16  17  8
16  18  8
17  20  8
18  21  8
19  20  8
19  21  8
22  23  8
22  24  8
23  25  8
24  26  8
25  27  8
26  27  8

$$$$
35533054
  -OEChem-12041211482D

 43 45  0     0  0  0  0  0  0999 V2000
    3.8660   -2.3170    0.0000 S   0  0  0  0  0  0  0  0  0  0  0  0
    3.8660    1.6830    0.0000 S   0  0  0  0  0  0  0  0  0  0  0  0
    7.3301    0.6830    0.0000 F   0  0  0  0  0  0  0  0  0  0  0  0
    6.9641    2.0490    0.0000 F   0  0  0  0  0  0  0  0  0  0  0  0
    5.9641    0.3170    0.0000 F   0  0  0  0  0  0  0  0  0  0  0  0
    2.8660   -2.3170    0.0000 O   0  0  0  0  0  0  0  0  0  0  0  0
    4.8660   -2.3170    0.0000 O   0  0  0  0  0  0  0  0  0  0  0  0
    4.8660    1.6830    0.0000 O   0  0  0  0  0  0  0  0  0  0  0  0
    2.8660    1.6830    0.0000 O   0  0  0  0  0  0  0  0  0  0  0  0
    5.5981    1.6830    0.0000 O   0  0  0  0  0  0  0  0  0  0  0  0
    3.8660   -3.3170    0.0000 N   0  0  0  0  0  0  0  0  0  0  0  0
    3.8660    2.6830    0.0000 N   0  0  0  0  0  0  0  0  0  0  0  0
    3.0000   -3.8170    0.0000 C   0  0  0  0  0  0  0  0  0  0  0  0
    2.0000   -3.8170    0.0000 C   0  0  0  0  0  0  0  0  0  0  0  0
    2.5000   -4.6830    0.0000 C   0  0  0  0  0  0  0  0  0  0  0  0
    3.8660   -1.3170    0.0000 C   0  0  0  0  0  0  0  0  0  0  0  0
    4.7321   -0.8170    0.0000 C   0  0  0  0  0  0  0  0  0  0  0  0
    3.0000   -0.8170    0.0000 C   0  0  0  0  0  0  0  0  0  0  0  0
    3.8660    0.6830    0.0000 C   0  0  0  0  0  0  0  0  0  0  0  0
    4.7321    0.1830    0.0000 C   0  0  0  0  0  0  0  0  0  0  0  0
    3.0000    0.1830    0.0000 C   0  0  0  0  0  0  0  0  0  0  0  0
    4.7321    3.1830    0.0000 C   0  0  0  0  0  0  0  0  0  0  0  0
    5.5981    2.6830    0.0000 C   0  0  0  0  0  0  0  0  0  0  0  0
    4.7321    4.1830    0.0000 C   0  0  0  0  0  0  0  0  0  0  0  0
    6.4641    3.1830    0.0000 C   0  0  0  0  0  0  0  0  0  0  0  0
    5.5981    4.6830    0.0000 C   0  0  0  0  0  0  0  0  0  0  0  0
    6.4641    4.1830    0.0000 C   0  0  0  0  0  0  0  0  0  0  0  0
    6.4641    1.1830    0.0000 C   0  0  0  0  0  0  0  0  0  0  0  0
    3.4384   -4.2554    0.0000 H   0  0  0  0  0  0  0  0  0  0  0  0
    1.8923   -3.2064    0.0000 H   0  0  0  0  0  0  0  0  0  0  0  0
    1.4174   -4.0290    0.0000 H   0  0  0  0  0  0  0  0  0  0  0  0
    2.0250   -5.0815    0.0000 H   0  0  0  0  0  0  0  0  0  0  0  0
    2.9750   -5.0815    0.0000 H   0  0  0  0  0  0  0  0  0  0  0  0
    4.4030   -3.6270    0.0000 H   0  0  0  0  0  0  0  0  0  0  0  0
    5.2690   -1.1270    0.0000 H   0  0  0  0  0  0  0  0  0  0  0  0
    2.4631   -1.1270    0.0000 H   0  0  0  0  0  0  0  0  0  0  0  0
    5.2690    0.4930    0.0000 H   0  0  0  0  0  0  0  0  0  0  0  0
    2.4631    0.4930    0.0000 H   0  0  0  0  0  0  0  0  0  0  0  0
    3.3291    2.9930    0.0000 H   0  0  0  0  0  0  0  0  0  0  0  0
    4.1951    4.4930    0.0000 H   0  0  0  0  0  0  0  0  0  0  0  0
    7.0010    2.8730    0.0000 H   0  0  0  0  0  0  0  0  0  0  0  0
    5.5981    5.3030    0.0000 H   0  0  0  0  0  0  0  0  0  0  0  0
    7.0010    4.4930    0.0000 H   0  0  0  0  0  0  0  0  0  0  0  0
  1  6  2  0  0  0  0
  1  7  2  0  0  0  0
  1 11  1  0  0  0  0
  1 16  1  0  0  0  0
  2  8  2  0  0  0  0
  2  9  2  0  0  0  0
  2 12  1  0  0  0  0
  2 19  1  0  0  0  0
  3 28  1  0  0  0  0
  4 28  1  0  0  0  0
  5 28  1  0  0  0  0
 10 23  1  0  0  0  0
 10 28  1  0  0  0  0
 11 13  1  0  0  0  0
 11 34  1  0  0  0  0
 12 22  1  0  0  0  0
 12 39  1  0  0  0  0
 13 14  1  0  0  0  0
 13 15  1  0  0  0  0
 13 29  1  0  0  0  0
 14 15  1  0  0  0  0
 14 30  1  0  0  0  0
 14 31  1  0  0  0  0
 15 32  1  0  0  0  0
 15 33  1  0  0  0  0
 16 17  2  0  0  0  0
 16 18  1  0  0  0  0
 17 20  1  0  0  0  0
 17 35  1  0  0  0  0
 18 21  2  0  0  0  0
 18 36  1  0  0  0  0
 19 20  2  0  0  0  0
 19 21  1  0  0  0  0
 20 37  1  0  0  0  0
 21 38  1  0  0  0  0
 22 23  1  0  0  0  0
 22 24  2  0  0  0  0
 23 25  2  0  0  0  0
 24 26  1  0  0  0  0
 24 40  1  0  0  0  0
 25 27  1  0  0  0  0
 25 41  1  0  0  0  0
 26 27  2  0  0  0  0
 26 42  1  0  0  0  0
 27 43  1  0  0  0  0
M  END
> <PUBCHEM_COMPOUND_CID>
35533054

> <PUBCHEM_COMPOUND_CANONICALIZED>
1

> <PUBCHEM_CACTVS_COMPLEXITY>
734

> <PUBCHEM_CACTVS_HBOND_ACCEPTOR>
10

> <PUBCHEM_CACTVS_HBOND_DONOR>
2

> <PUBCHEM_CACTVS_ROTATABLE_BOND>
7

> <PUBCHEM_CACTVS_SUBSKEYS>
AAADccB7OYBgAAAAAAAAAAAAGAAAAAAAAAAwYAAAAAAAAAABQAAAHwQQQAAACCzB0BQwx4BABAKAACRCQHDCCBAgIgAIiJgHbIgOJiKEsZuBMCBk0BEI6AeQQAAAAAgAAAAAEAAAEAAAAAAgAAAAAAAAAA==

> <PUBCHEM_IUPAC_OPENEYE_NAME>
N1-cyclopropyl-N4-[2-(trifluoromethoxy)phenyl]benzene-1,4-disulfonamide

> <PUBCHEM_IUPAC_CAS_NAME>
N1-cyclopropyl-N4-[2-(trifluoromethoxy)phenyl]benzene-1,4-disulfonamide

> <PUBCHEM_IUPAC_NAME>
1-N-cyclopropyl-4-N-[2-(trifluoromethoxy)phenyl]benzene-1,4-disulfonamide

> <PUBCHEM_IUPAC_SYSTEMATIC_NAME>
N1-cyclopropyl-N4-[2-(trifluoromethyloxy)phenyl]benzene-1,4-disulfonamide

> <PUBCHEM_IUPAC_TRADITIONAL_NAME>
N-cyclopropyl-N'-[2-(trifluoromethoxy)phenyl]benzene-1,4-disulfonamide

> <PUBCHEM_IUPAC_INCHI>
InChI=1S/C16H15F3N2O5S2/c17-16(18,19)26-15-4-2-1-3-14(15)21-28(24,25)13-9-7-12(8-10-13)27(22,23)20-11-5-6-11/h1-4,7-11,20-21H,5-6H2

> <PUBCHEM_IUPAC_INCHIKEY>
KJSSCDVDKCIKQN-UHFFFAOYSA-N

> <PUBCHEM_XLOGP3>
3

> <PUBCHEM_EXACT_MASS>
436.037448

> <PUBCHEM_MOLECULAR_FORMULA>
C16H15F3N2O5S2

> <PUBCHEM_MOLECULAR_WEIGHT>
436.42591

> <PUBCHEM_OPENEYE_CAN_SMILES>
C1CC1NS(=O)(=O)C2=CC=C(C=C2)S(=O)(=O)NC3=CC=CC=C3OC(F)(F)F

> <PUBCHEM_OPENEYE_ISO_SMILES>
C1CC1NS(=O)(=O)C2=CC=C(C=C2)S(=O)(=O)NC3=CC=CC=C3OC(F)(F)F

> <PUBCHEM_CACTVS_TPSA>
118

> <PUBCHEM_MONOISOTOPIC_WEIGHT>
436.037448

> <PUBCHEM_TOTAL_CHARGE>
0

> <PUBCHEM_HEAVY_ATOM_COUNT>
28

> <PUBCHEM_ATOM_DEF_STEREO_COUNT>
0

> <PUBCHEM_ATOM_UDEF_STEREO_COUNT>
0

> <PUBCHEM_BOND_DEF_STEREO_COUNT>
0

> <PUBCHEM_BOND_UDEF_STEREO_COUNT>
0

> <PUBCHEM_ISOTOPIC_ATOM_COUNT>
0

> <PUBCHEM_COMPONENT_COUNT>
1

> <PUBCHEM_CACTVS_TAUTO_COUNT>
1

> <PUBCHEM_COORDINATE_TYPE>
1
5
255

> <PUBCHEM_BONDANNOTATIONS>
16  17  8
16  18  8
17  20  8
18  21  8
19  20  8
19  21  8
22  23  8
22  24  8
23  25  8
24  26  8
25  27  8
26  27  8

$$$$
35537608
  -OEChem-12041211492D

 46 48  0     0  0  0  0  0  0999 V2000
    3.8660   -2.3170    0.0000 S   0  0  0  0  0  0  0  0  0  0  0  0
    3.8660    1.6830    0.0000 S   0  0  0  0  0  0  0  0  0  0  0  0
    8.1962    2.1830    0.0000 F   0  0  0  0  0  0  0  0  0  0  0  0
    7.8301    0.8170    0.0000 F   0  0  0  0  0  0  0  0  0  0  0  0
    6.8301    2.5490    0.0000 F   0  0  0  0  0  0  0  0  0  0  0  0
    2.8660   -2.3170    0.0000 O   0  0  0  0  0  0  0  0  0  0  0  0
    4.8660   -2.3170    0.0000 O   0  0  0  0  0  0  0  0  0  0  0  0
    4.8660    1.6830    0.0000 O   0  0  0  0  0  0  0  0  0  0  0  0
    2.8660    1.6830    0.0000 O   0  0  0  0  0  0  0  0  0  0  0  0
    5.5981    1.6830    0.0000 O   0  0  0  0  0  0  0  0  0  0  0  0
    3.8660   -3.3170    0.0000 N   0  0  0  0  0  0  0  0  0  0  0  0
    3.8660    2.6830    0.0000 N   0  0  0  0  0  0  0  0  0  0  0  0
    3.0000   -3.8170    0.0000 C   0  0  0  0  0  0  0  0  0  0  0  0
    2.0000   -3.8170    0.0000 C   0  0  0  0  0  0  0  0  0  0  0  0
    2.5000   -4.6830    0.0000 C   0  0  0  0  0  0  0  0  0  0  0  0
    3.8660   -1.3170    0.0000 C   0  0  0  0  0  0  0  0  0  0  0  0
    4.7321   -0.8170    0.0000 C   0  0  0  0  0  0  0  0  0  0  0  0
    3.0000   -0.8170    0.0000 C   0  0  0  0  0  0  0  0  0  0  0  0
    3.8660    0.6830    0.0000 C   0  0  0  0  0  0  0  0  0  0  0  0
    4.7321    0.1830    0.0000 C   0  0  0  0  0  0  0  0  0  0  0  0
    3.0000    0.1830    0.0000 C   0  0  0  0  0  0  0  0  0  0  0  0
    4.7321    3.1830    0.0000 C   0  0  0  0  0  0  0  0  0  0  0  0
    5.5981    2.6830    0.0000 C   0  0  0  0  0  0  0  0  0  0  0  0
    4.7321    4.1830    0.0000 C   0  0  0  0  0  0  0  0  0  0  0  0
    6.4641    3.1830    0.0000 C   0  0  0  0  0  0  0  0  0  0  0  0
    5.5981    4.6830    0.0000 C   0  0  0  0  0  0  0  0  0  0  0  0
    6.4641    4.1830    0.0000 C   0  0  0  0  0  0  0  0  0  0  0  0
    6.4641    1.1830    0.0000 C   0  0  0  0  0  0  0  0  0  0  0  0
    7.3301    1.6830    0.0000 C   0  0  0  0  0  0  0  0  0  0  0  0
    3.4384   -4.2554    0.0000 H   0  0  0  0  0  0  0  0  0  0  0  0
    1.8923   -3.2064    0.0000 H   0  0  0  0  0  0  0  0  0  0  0  0
    1.4174   -4.0290    0.0000 H   0  0  0  0  0  0  0  0  0  0  0  0
    2.0250   -5.0815    0.0000 H   0  0  0  0  0  0  0  0  0  0  0  0
    2.9750   -5.0815    0.0000 H   0  0  0  0  0  0  0  0  0  0  0  0
    4.4030   -3.6270    0.0000 H   0  0  0  0  0  0  0  0  0  0  0  0
    5.2690   -1.1270    0.0000 H   0  0  0  0  0  0  0  0  0  0  0  0
    2.4631   -1.1270    0.0000 H   0  0  0  0  0  0  0  0  0  0  0  0
    5.2690    0.4930    0.0000 H   0  0  0  0  0  0  0  0  0  0  0  0
    2.4631    0.4930    0.0000 H   0  0  0  0  0  0  0  0  0  0  0  0
    3.3291    2.9930    0.0000 H   0  0  0  0  0  0  0  0  0  0  0  0
    4.1951    4.4930    0.0000 H   0  0  0  0  0  0  0  0  0  0  0  0
    7.0010    2.8730    0.0000 H   0  0  0  0  0  0  0  0  0  0  0  0
    5.5981    5.3030    0.0000 H   0  0  0  0  0  0  0  0  0  0  0  0
    7.0010    4.4930    0.0000 H   0  0  0  0  0  0  0  0  0  0  0  0
    6.0656    0.7081    0.0000 H   0  0  0  0  0  0  0  0  0  0  0  0
    6.8626    0.7081    0.0000 H   0  0  0  0  0  0  0  0  0  0  0  0
  1  6  2  0  0  0  0
  1  7  2  0  0  0  0
  1 11  1  0  0  0  0
  1 16  1  0  0  0  0
  2  8  2  0  0  0  0
  2  9  2  0  0  0  0
  2 12  1  0  0  0  0
  2 19  1  0  0  0  0
  3 29  1  0  0  0  0
  4 29  1  0  0  0  0
  5 29  1  0  0  0  0
 10 23  1  0  0  0  0
 10 28  1  0  0  0  0
 11 13  1  0  0  0  0
 11 35  1  0  0  0  0
 12 22  1  0  0  0  0
 12 40  1  0  0  0  0
 13 14  1  0  0  0  0
 13 15  1  0  0  0  0
 13 30  1  0  0  0  0
 14 15  1  0  0  0  0
 14 31  1  0  0  0  0
 14 32  1  0  0  0  0
 15 33  1  0  0  0  0
 15 34  1  0  0  0  0
 16 17  2  0  0  0  0
 16 18  1  0  0  0  0
 17 20  1  0  0  0  0
 17 36  1  0  0  0  0
 18 21  2  0  0  0  0
 18 37  1  0  0  0  0
 19 20  2  0  0  0  0
 19 21  1  0  0  0  0
 20 38  1  0  0  0  0
 21 39  1  0  0  0  0
 22 23  1  0  0  0  0
 22 24  2  0  0  0  0
 23 25  2  0  0  0  0
 24 26  1  0  0  0  0
 24 41  1  0  0  0  0
 25 27  1  0  0  0  0
 25 42  1  0  0  0  0
 26 27  2  0  0  0  0
 26 43  1  0  0  0  0
 27 44  1  0  0  0  0
 28 29  1  0  0  0  0
 28 45  1  0  0  0  0
 28 46  1  0  0  0  0
M  END
> <PUBCHEM_COMPOUND_CID>
35537608

> <PUBCHEM_COMPOUND_CANONICALIZED>
1

> <PUBCHEM_CACTVS_COMPLEXITY>
749

> <PUBCHEM_CACTVS_HBOND_ACCEPTOR>
10

> <PUBCHEM_CACTVS_HBOND_DONOR>
2

> <PUBCHEM_CACTVS_ROTATABLE_BOND>
8

> <PUBCHEM_CACTVS_SUBSKEYS>
AAADceB7OYBgAAAAAAAAAAAAGAAAAAAAAAAwYAAAAAAAAAABQAAAHwQQQAAACCzh0BYwx4BABAKAACRCQHDCCBAgIgAIiJgHbIgOJiKEsZuDOCDk0BEI6AeQQAAAAAgAAAAAEAAAEAAAAAAgAAAAAAAAAA==

> <PUBCHEM_IUPAC_OPENEYE_NAME>
N1-cyclopropyl-N4-[2-(2,2,2-trifluoroethoxy)phenyl]benzene-1,4-disulfonamide

> <PUBCHEM_IUPAC_CAS_NAME>
N1-cyclopropyl-N4-[2-(2,2,2-trifluoroethoxy)phenyl]benzene-1,4-disulfonamide

> <PUBCHEM_IUPAC_NAME>
1-N-cyclopropyl-4-N-[2-(2,2,2-trifluoroethoxy)phenyl]benzene-1,4-disulfonamide

> <PUBCHEM_IUPAC_SYSTEMATIC_NAME>
N1-cyclopropyl-N4-[2-[2,2,2-tris(fluoranyl)ethoxy]phenyl]benzene-1,4-disulfonamide

> <PUBCHEM_IUPAC_TRADITIONAL_NAME>
N-cyclopropyl-N'-[2-(2,2,2-trifluoroethoxy)phenyl]benzene-1,4-disulfonamide

> <PUBCHEM_IUPAC_INCHI>
InChI=1S/C17H17F3N2O5S2/c18-17(19,20)11-27-16-4-2-1-3-15(16)22-29(25,26)14-9-7-13(8-10-14)28(23,24)21-12-5-6-12/h1-4,7-10,12,21-22H,5-6,11H2

> <PUBCHEM_IUPAC_INCHIKEY>
BXRHEJHOJSCRCR-UHFFFAOYSA-N

> <PUBCHEM_XLOGP3>
2.9

> <PUBCHEM_EXACT_MASS>
450.053098

> <PUBCHEM_MOLECULAR_FORMULA>
C17H17F3N2O5S2

> <PUBCHEM_MOLECULAR_WEIGHT>
450.45249

> <PUBCHEM_OPENEYE_CAN_SMILES>
C1CC1NS(=O)(=O)C2=CC=C(C=C2)S(=O)(=O)NC3=CC=CC=C3OCC(F)(F)F

> <PUBCHEM_OPENEYE_ISO_SMILES>
C1CC1NS(=O)(=O)C2=CC=C(C=C2)S(=O)(=O)NC3=CC=CC=C3OCC(F)(F)F

> <PUBCHEM_CACTVS_TPSA>
118

> <PUBCHEM_MONOISOTOPIC_WEIGHT>
450.053098

> <PUBCHEM_TOTAL_CHARGE>
0

> <PUBCHEM_HEAVY_ATOM_COUNT>
29

> <PUBCHEM_ATOM_DEF_STEREO_COUNT>
0

> <PUBCHEM_ATOM_UDEF_STEREO_COUNT>
0

> <PUBCHEM_BOND_DEF_STEREO_COUNT>
0

> <PUBCHEM_BOND_UDEF_STEREO_COUNT>
0

> <PUBCHEM_ISOTOPIC_ATOM_COUNT>
0

> <PUBCHEM_COMPONENT_COUNT>
1

> <PUBCHEM_CACTVS_TAUTO_COUNT>
1

> <PUBCHEM_COORDINATE_TYPE>
1
5
255

> <PUBCHEM_BONDANNOTATIONS>
16  17  8
16  18  8
17  20  8
18  21  8
19  20  8
19  21  8
22  23  8
22  24  8
23  25  8
24  26  8
25  27  8
26  27  8

$$$$
35549487
  -OEChem-12041211492D

 43 44  0     1  0  0  0  0  0999 V2000
    8.6418    2.0970    0.0000 F   0  0  0  0  0  0  0  0  0  0  0  0
    7.0142    2.6894    0.0000 F   0  0  0  0  0  0  0  0  0  0  0  0
    7.3149    0.9836    0.0000 O   0  0  0  0  0  0  0  0  0  0  0  0
    2.8660   -1.1900    0.0000 O   0  0  0  0  0  0  0  0  0  0  0  0
    3.7320    0.3100    0.0000 O   0  0  0  0  0  0  0  0  0  0  0  0
    8.0622   -1.1900    0.0000 O   0  5  0  0  0  0  0  0  0  0  0  0
    7.8389    0.0760    0.0000 O   0  0  0  0  0  0  0  0  0  0  0  0
    3.7320    3.3100    0.0000 O   0  5  0  0  0  0  0  0  0  0  0  0
    2.8660    1.8100    0.0000 O   0  0  0  0  0  0  0  0  0  0  0  0
    5.4641   -2.6900    0.0000 N   0  0  0  0  0  0  0  0  0  0  0  0
    3.7320    2.3100    0.0000 N   0  3  0  0  0  0  0  0  0  0  0  0
    5.4641   -0.6900    0.0000 C   0  0  1  0  0  0  0  0  0  0  0  0
    4.5981   -1.1900    0.0000 C   0  0  0  0  0  0  0  0  0  0  0  0
    6.3301   -1.1900    0.0000 C   0  0  0  0  0  0  0  0  0  0  0  0
    5.4641    0.3100    0.0000 C   0  0  0  0  0  0  0  0  0  0  0  0
    4.5981   -2.1900    0.0000 C   0  0  0  0  0  0  0  0  0  0  0  0
    6.3301   -2.1900    0.0000 C   0  0  0  0  0  0  0  0  0  0  0  0
    6.3301    0.8100    0.0000 C   0  0  0  0  0  0  0  0  0  0  0  0
    4.5981    0.8100    0.0000 C   0  0  0  0  0  0  0  0  0  0  0  0
    3.7320   -0.6900    0.0000 C   0  0  0  0  0  0  0  0  0  0  0  0
    3.7320   -2.6900    0.0000 C   0  0  0  0  0  0  0  0  0  0  0  0
    7.1962   -2.6900    0.0000 C   0  0  0  0  0  0  0  0  0  0  0  0
    7.1962   -0.6900    0.0000 C   0  0  0  0  0  0  0  0  0  0  0  0
    4.5981    1.8100    0.0000 C   0  0  0  0  0  0  0  0  0  0  0  0
    6.3301    1.8100    0.0000 C   0  0  0  0  0  0  0  0  0  0  0  0
    5.4641    2.3100    0.0000 C   0  0  0  0  0  0  0  0  0  0  0  0
    7.6570    1.9233    0.0000 C   0  0  0  0  0  0  0  0  0  0  0  0
    2.0000   -0.6900    0.0000 C   0  0  0  0  0  0  0  0  0  0  0  0
    6.2002   -0.2650    0.0000 H   0  0  0  0  0  0  0  0  0  0  0  0
    5.4641   -3.3100    0.0000 H   0  0  0  0  0  0  0  0  0  0  0  0
    4.0611    0.5000    0.0000 H   0  0  0  0  0  0  0  0  0  0  0  0
    3.4220   -2.1531    0.0000 H   0  0  0  0  0  0  0  0  0  0  0  0
    3.1951   -3.0000    0.0000 H   0  0  0  0  0  0  0  0  0  0  0  0
    4.0420   -3.2269    0.0000 H   0  0  0  0  0  0  0  0  0  0  0  0
    6.8862   -3.2269    0.0000 H   0  0  0  0  0  0  0  0  0  0  0  0
    7.7331   -3.0000    0.0000 H   0  0  0  0  0  0  0  0  0  0  0  0
    7.5062   -2.1531    0.0000 H   0  0  0  0  0  0  0  0  0  0  0  0
    6.8671    2.1200    0.0000 H   0  0  0  0  0  0  0  0  0  0  0  0
    5.4641    2.9300    0.0000 H   0  0  0  0  0  0  0  0  0  0  0  0
    7.0464    1.8157    0.0000 H   0  0  0  0  0  0  0  0  0  0  0  0
    2.3100   -0.1531    0.0000 H   0  0  0  0  0  0  0  0  0  0  0  0
    1.4631   -0.3800    0.0000 H   0  0  0  0  0  0  0  0  0  0  0  0
    1.6900   -1.2269    0.0000 H   0  0  0  0  0  0  0  0  0  0  0  0
  1 27  1  0  0  0  0
  2 27  1  0  0  0  0
  3 18  1  0  0  0  0
  3 27  1  0  0  0  0
  4 20  1  0  0  0  0
  4 28  1  0  0  0  0
  5 20  2  0  0  0  0
  6 23  1  0  0  0  0
  7 23  2  0  0  0  0
  8 11  1  0  0  0  0
  9 11  2  0  0  0  0
 10 16  1  0  0  0  0
 10 17  1  0  0  0  0
 10 30  1  0  0  0  0
 11 24  1  0  0  0  0
 12 13  1  0  0  0  0
 12 14  1  0  0  0  0
 12 15  1  0  0  0  0
 12 29  1  1  0  0  0
 13 16  2  0  0  0  0
 13 20  1  0  0  0  0
 14 17  2  0  0  0  0
 14 23  1  0  0  0  0
 15 18  2  0  0  0  0
 15 19  1  0  0  0  0
 16 21  1  0  0  0  0
 17 22  1  0  0  0  0
 18 25  1  0  0  0  0
 19 24  2  0  0  0  0
 19 31  1  0  0  0  0
 21 32  1  0  0  0  0
 21 33  1  0  0  0  0
 21 34  1  0  0  0  0
 22 35  1  0  0  0  0
 22 36  1  0  0  0  0
 22 37  1  0  0  0  0
 24 26  1  0  0  0  0
 25 26  2  0  0  0  0
 25 38  1  0  0  0  0
 26 39  1  0  0  0  0
 27 40  1  0  0  0  0
 28 41  1  0  0  0  0
 28 42  1  0  0  0  0
 28 43  1  0  0  0  0
M  CHG  3   6  -1   8  -1  11   1
M  END
> <PUBCHEM_COMPOUND_CID>
35549487

> <PUBCHEM_COMPOUND_CANONICALIZED>
1

> <PUBCHEM_CACTVS_COMPLEXITY>
724

> <PUBCHEM_CACTVS_HBOND_ACCEPTOR>
10

> <PUBCHEM_CACTVS_HBOND_DONOR>
1

> <PUBCHEM_CACTVS_ROTATABLE_BOND>
5

> <PUBCHEM_CACTVS_SUBSKEYS>
AAADccB7OYAAAAAAAAAAAAAAAAAAAAAAAAAwQAAAAAAAAAABAAAAHwAUAAAADQyBmBIyzoLQRACJAiTSSwCCCAAgIgAoiAEGbMoMJjKEsZuAMCBk0BGI6Ue47uzOgEAAQAAIAAAAgACAABAAAAAAAAAAAA==

> <PUBCHEM_IUPAC_OPENEYE_NAME>
(4R)-4-[2-(difluoromethoxy)-5-nitro-phenyl]-5-methoxycarbonyl-2,6-dimethyl-1,4-dihydropyridine-3-carboxylate

> <PUBCHEM_IUPAC_CAS_NAME>
(4R)-4-[2-(difluoromethoxy)-5-nitrophenyl]-5-methoxycarbonyl-2,6-dimethyl-1,4-dihydropyridine-3-carboxylate

> <PUBCHEM_IUPAC_NAME>
(4R)-4-[2-(difluoromethoxy)-5-nitrophenyl]-5-methoxycarbonyl-2,6-dimethyl-1,4-dihydropyridine-3-carboxylate

> <PUBCHEM_IUPAC_SYSTEMATIC_NAME>
(4R)-4-[2-[bis(fluoranyl)methoxy]-5-nitro-phenyl]-5-methoxycarbonyl-2,6-dimethyl-1,4-dihydropyridine-3-carboxylate

> <PUBCHEM_IUPAC_TRADITIONAL_NAME>
(4R)-5-carbomethoxy-4-[2-(difluoromethoxy)-5-nitro-phenyl]-2,6-dimethyl-1,4-dihydropyridine-3-carboxylate

> <PUBCHEM_IUPAC_INCHI>
InChI=1S/C17H16F2N2O7/c1-7-12(15(22)23)14(13(8(2)20-7)16(24)27-3)10-6-9(21(25)26)4-5-11(10)28-17(18)19/h4-6,14,17,20H,1-3H3,(H,22,23)/p-1/t14-/m1/s1

> <PUBCHEM_IUPAC_INCHIKEY>
MQVHWESMBXYOKX-CQSZACIVSA-M

> <PUBCHEM_XLOGP3>
3.8

> <PUBCHEM_EXACT_MASS>
397.084732

> <PUBCHEM_MOLECULAR_FORMULA>
C17H15F2N2O7-

> <PUBCHEM_MOLECULAR_WEIGHT>
397.307006

> <PUBCHEM_OPENEYE_CAN_SMILES>
CC1=C(C(C(=C(N1)C)C(=O)OC)C2=C(C=CC(=C2)[N+](=O)[O-])OC(F)F)C(=O)[O-]

> <PUBCHEM_OPENEYE_ISO_SMILES>
CC1=C([C@H](C(=C(N1)C)C(=O)OC)C2=C(C=CC(=C2)[N+](=O)[O-])OC(F)F)C(=O)[O-]

> <PUBCHEM_CACTVS_TPSA>
134

> <PUBCHEM_MONOISOTOPIC_WEIGHT>
397.084732

> <PUBCHEM_TOTAL_CHARGE>
-1

> <PUBCHEM_HEAVY_ATOM_COUNT>
28

> <PUBCHEM_ATOM_DEF_STEREO_COUNT>
1

> <PUBCHEM_ATOM_UDEF_STEREO_COUNT>
0

> <PUBCHEM_BOND_DEF_STEREO_COUNT>
0

> <PUBCHEM_BOND_UDEF_STEREO_COUNT>
0

> <PUBCHEM_ISOTOPIC_ATOM_COUNT>
0

> <PUBCHEM_COMPONENT_COUNT>
1

> <PUBCHEM_CACTVS_TAUTO_COUNT>
5

> <PUBCHEM_COORDINATE_TYPE>
1
5
255

> <PUBCHEM_BONDANNOTATIONS>
12  29  5
15  18  8
15  19  8
18  25  8
19  24  8
24  26  8
25  26  8

$$$$
35549488
  -OEChem-12041211492D

 43 44  0     1  0  0  0  0  0999 V2000
    8.6418    2.0970    0.0000 F   0  0  0  0  0  0  0  0  0  0  0  0
    7.0142    2.6894    0.0000 F   0  0  0  0  0  0  0  0  0  0  0  0
    7.3149    0.9836    0.0000 O   0  0  0  0  0  0  0  0  0  0  0  0
    2.8660   -1.1900    0.0000 O   0  0  0  0  0  0  0  0  0  0  0  0
    3.7320    0.3100    0.0000 O   0  0  0  0  0  0  0  0  0  0  0  0
    8.0622   -1.1900    0.0000 O   0  5  0  0  0  0  0  0  0  0  0  0
    7.8389    0.0760    0.0000 O   0  0  0  0  0  0  0  0  0  0  0  0
    3.7320    3.3100    0.0000 O   0  5  0  0  0  0  0  0  0  0  0  0
    2.8660    1.8100    0.0000 O   0  0  0  0  0  0  0  0  0  0  0  0
    5.4641   -2.6900    0.0000 N   0  0  0  0  0  0  0  0  0  0  0  0
    3.7320    2.3100    0.0000 N   0  3  0  0  0  0  0  0  0  0  0  0
    5.4641   -0.6900    0.0000 C   0  0  2  0  0  0  0  0  0  0  0  0
    4.5981   -1.1900    0.0000 C   0  0  0  0  0  0  0  0  0  0  0  0
    6.3301   -1.1900    0.0000 C   0  0  0  0  0  0  0  0  0  0  0  0
    5.4641    0.3100    0.0000 C   0  0  0  0  0  0  0  0  0  0  0  0
    4.5981   -2.1900    0.0000 C   0  0  0  0  0  0  0  0  0  0  0  0
    6.3301   -2.1900    0.0000 C   0  0  0  0  0  0  0  0  0  0  0  0
    6.3301    0.8100    0.0000 C   0  0  0  0  0  0  0  0  0  0  0  0
    4.5981    0.8100    0.0000 C   0  0  0  0  0  0  0  0  0  0  0  0
    3.7320   -0.6900    0.0000 C   0  0  0  0  0  0  0  0  0  0  0  0
    3.7320   -2.6900    0.0000 C   0  0  0  0  0  0  0  0  0  0  0  0
    7.1962   -2.6900    0.0000 C   0  0  0  0  0  0  0  0  0  0  0  0
    7.1962   -0.6900    0.0000 C   0  0  0  0  0  0  0  0  0  0  0  0
    4.5981    1.8100    0.0000 C   0  0  0  0  0  0  0  0  0  0  0  0
    6.3301    1.8100    0.0000 C   0  0  0  0  0  0  0  0  0  0  0  0
    5.4641    2.3100    0.0000 C   0  0  0  0  0  0  0  0  0  0  0  0
    7.6570    1.9233    0.0000 C   0  0  0  0  0  0  0  0  0  0  0  0
    2.0000   -0.6900    0.0000 C   0  0  0  0  0  0  0  0  0  0  0  0
    6.2002   -0.2650    0.0000 H   0  0  0  0  0  0  0  0  0  0  0  0
    5.4641   -3.3100    0.0000 H   0  0  0  0  0  0  0  0  0  0  0  0
    4.0611    0.5000    0.0000 H   0  0  0  0  0  0  0  0  0  0  0  0
    3.4220   -2.1531    0.0000 H   0  0  0  0  0  0  0  0  0  0  0  0
    3.1951   -3.0000    0.0000 H   0  0  0  0  0  0  0  0  0  0  0  0
    4.0420   -3.2269    0.0000 H   0  0  0  0  0  0  0  0  0  0  0  0
    6.8862   -3.2269    0.0000 H   0  0  0  0  0  0  0  0  0  0  0  0
    7.7331   -3.0000    0.0000 H   0  0  0  0  0  0  0  0  0  0  0  0
    7.5062   -2.1531    0.0000 H   0  0  0  0  0  0  0  0  0  0  0  0
    6.8671    2.1200    0.0000 H   0  0  0  0  0  0  0  0  0  0  0  0
    5.4641    2.9300    0.0000 H   0  0  0  0  0  0  0  0  0  0  0  0
    7.0464    1.8157    0.0000 H   0  0  0  0  0  0  0  0  0  0  0  0
    2.3100   -0.1531    0.0000 H   0  0  0  0  0  0  0  0  0  0  0  0
    1.4631   -0.3800    0.0000 H   0  0  0  0  0  0  0  0  0  0  0  0
    1.6900   -1.2269    0.0000 H   0  0  0  0  0  0  0  0  0  0  0  0
  1 27  1  0  0  0  0
  2 27  1  0  0  0  0
  3 18  1  0  0  0  0
  3 27  1  0  0  0  0
  4 20  1  0  0  0  0
  4 28  1  0  0  0  0
  5 20  2  0  0  0  0
  6 23  1  0  0  0  0
  7 23  2  0  0  0  0
  8 11  1  0  0  0  0
  9 11  2  0  0  0  0
 10 16  1  0  0  0  0
 10 17  1  0  0  0  0
 10 30  1  0  0  0  0
 11 24  1  0  0  0  0
 12 13  1  0  0  0  0
 12 14  1  0  0  0  0
 12 15  1  0  0  0  0
 12 29  1  6  0  0  0
 13 16  2  0  0  0  0
 13 20  1  0  0  0  0
 14 17  2  0  0  0  0
 14 23  1  0  0  0  0
 15 18  2  0  0  0  0
 15 19  1  0  0  0  0
 16 21  1  0  0  0  0
 17 22  1  0  0  0  0
 18 25  1  0  0  0  0
 19 24  2  0  0  0  0
 19 31  1  0  0  0  0
 21 32  1  0  0  0  0
 21 33  1  0  0  0  0
 21 34  1  0  0  0  0
 22 35  1  0  0  0  0
 22 36  1  0  0  0  0
 22 37  1  0  0  0  0
 24 26  1  0  0  0  0
 25 26  2  0  0  0  0
 25 38  1  0  0  0  0
 26 39  1  0  0  0  0
 27 40  1  0  0  0  0
 28 41  1  0  0  0  0
 28 42  1  0  0  0  0
 28 43  1  0  0  0  0
M  CHG  3   6  -1   8  -1  11   1
M  END
> <PUBCHEM_COMPOUND_CID>
35549488

> <PUBCHEM_COMPOUND_CANONICALIZED>
1

> <PUBCHEM_CACTVS_COMPLEXITY>
724

> <PUBCHEM_CACTVS_HBOND_ACCEPTOR>
10

> <PUBCHEM_CACTVS_HBOND_DONOR>
1

> <PUBCHEM_CACTVS_ROTATABLE_BOND>
5

> <PUBCHEM_CACTVS_SUBSKEYS>
AAADccB7OYAAAAAAAAAAAAAAAAAAAAAAAAAwQAAAAAAAAAABAAAAHwAUAAAADQyBmBIyzoLQRACJAiTSSwCCCAAgIgAoiAEGbMoMJjKEsZuAMCBk0BGI6Ue47uzOgEAAQAAIAAAAgACAABAAAAAAAAAAAA==

> <PUBCHEM_IUPAC_OPENEYE_NAME>
(4S)-4-[2-(difluoromethoxy)-5-nitro-phenyl]-5-methoxycarbonyl-2,6-dimethyl-1,4-dihydropyridine-3-carboxylate

> <PUBCHEM_IUPAC_CAS_NAME>
(4S)-4-[2-(difluoromethoxy)-5-nitrophenyl]-5-methoxycarbonyl-2,6-dimethyl-1,4-dihydropyridine-3-carboxylate

> <PUBCHEM_IUPAC_NAME>
(4S)-4-[2-(difluoromethoxy)-5-nitrophenyl]-5-methoxycarbonyl-2,6-dimethyl-1,4-dihydropyridine-3-carboxylate

> <PUBCHEM_IUPAC_SYSTEMATIC_NAME>
(4S)-4-[2-[bis(fluoranyl)methoxy]-5-nitro-phenyl]-5-methoxycarbonyl-2,6-dimethyl-1,4-dihydropyridine-3-carboxylate

> <PUBCHEM_IUPAC_TRADITIONAL_NAME>
(4S)-5-carbomethoxy-4-[2-(difluoromethoxy)-5-nitro-phenyl]-2,6-dimethyl-1,4-dihydropyridine-3-carboxylate

> <PUBCHEM_IUPAC_INCHI>
InChI=1S/C17H16F2N2O7/c1-7-12(15(22)23)14(13(8(2)20-7)16(24)27-3)10-6-9(21(25)26)4-5-11(10)28-17(18)19/h4-6,14,17,20H,1-3H3,(H,22,23)/p-1/t14-/m0/s1

> <PUBCHEM_IUPAC_INCHIKEY>
MQVHWESMBXYOKX-AWEZNQCLSA-M

> <PUBCHEM_XLOGP3>
3.8

> <PUBCHEM_EXACT_MASS>
397.084732

> <PUBCHEM_MOLECULAR_FORMULA>
C17H15F2N2O7-

> <PUBCHEM_MOLECULAR_WEIGHT>
397.307006

> <PUBCHEM_OPENEYE_CAN_SMILES>
CC1=C(C(C(=C(N1)C)C(=O)OC)C2=C(C=CC(=C2)[N+](=O)[O-])OC(F)F)C(=O)[O-]

> <PUBCHEM_OPENEYE_ISO_SMILES>
CC1=C([C@@H](C(=C(N1)C)C(=O)OC)C2=C(C=CC(=C2)[N+](=O)[O-])OC(F)F)C(=O)[O-]

> <PUBCHEM_CACTVS_TPSA>
134

> <PUBCHEM_MONOISOTOPIC_WEIGHT>
397.084732

> <PUBCHEM_TOTAL_CHARGE>
-1

> <PUBCHEM_HEAVY_ATOM_COUNT>
28

> <PUBCHEM_ATOM_DEF_STEREO_COUNT>
1

> <PUBCHEM_ATOM_UDEF_STEREO_COUNT>
0

> <PUBCHEM_BOND_DEF_STEREO_COUNT>
0

> <PUBCHEM_BOND_UDEF_STEREO_COUNT>
0

> <PUBCHEM_ISOTOPIC_ATOM_COUNT>
0

> <PUBCHEM_COMPONENT_COUNT>
1

> <PUBCHEM_CACTVS_TAUTO_COUNT>
5

> <PUBCHEM_COORDINATE_TYPE>
1
5
255

> <PUBCHEM_BONDANNOTATIONS>
12  29  6
15  18  8
15  19  8
18  25  8
19  24  8
24  26  8
25  26  8

$$$$
