35680445
  -OEChem-06111304242D

 39 41  0     1  0  0  0  0  0999 V2000
    8.3987   -1.3027    0.0000 O   0  0  0  0  0  0  0  0  0  0  0  0
    8.0321    0.3901    0.0000 N   0  0  0  0  0  0  0  0  0  0  0  0
    5.3364    0.7149    0.0000 C   0  0  0  0  0  0  0  0  0  0  0  0
    4.5274    1.3027    0.0000 C   0  0  0  0  0  0  0  0  0  0  0  0
    5.0274   -0.2362    0.0000 C   0  0  0  0  0  0  0  0  0  0  0  0
    3.7183    0.7149    0.0000 C   0  0  0  0  0  0  0  0  0  0  0  0
    4.0274   -0.2362    0.0000 C   0  0  0  0  0  0  0  0  0  0  0  0
    6.3518    0.9471    0.0000 C   0  0  0  0  0  0  0  0  0  0  0  0
    9.6814   -0.1388    0.0000 C   0  0  2  0  0  0  0  0  0  0  0  0
    7.0547    0.1784    0.0000 C   0  0  0  0  0  0  0  0  0  0  0  0
    5.7123   -1.0209    0.0000 C   0  0  0  0  0  0  0  0  0  0  0  0
    2.7029    0.9471    0.0000 C   0  0  0  0  0  0  0  0  0  0  0  0
    6.7328   -0.8122    0.0000 C   0  0  0  0  0  0  0  0  0  0  0  0
    3.3424   -1.0209    0.0000 C   0  0  0  0  0  0  0  0  0  0  0  0
   10.3534   -0.8793    0.0000 C   0  0  0  0  0  0  0  0  0  0  0  0
    8.7041   -0.3504    0.0000 C   0  0  0  0  0  0  0  0  0  0  0  0
    9.9867    0.8135    0.0000 C   0  0  0  0  0  0  0  0  0  0  0  0
    2.0000    0.1784    0.0000 C   0  0  0  0  0  0  0  0  0  0  0  0
    2.3219   -0.8122    0.0000 C   0  0  0  0  0  0  0  0  0  0  0  0
   11.3307   -0.6676    0.0000 C   0  0  0  0  0  0  0  0  0  0  0  0
    4.9422    1.7634    0.0000 H   0  0  0  0  0  0  0  0  0  0  0  0
    4.1125    1.7634    0.0000 H   0  0  0  0  0  0  0  0  0  0  0  0
    6.5365    1.5390    0.0000 H   0  0  0  0  0  0  0  0  0  0  0  0
   10.2873   -0.0075    0.0000 H   0  0  0  0  0  0  0  0  0  0  0  0
    5.5139   -1.6083    0.0000 H   0  0  0  0  0  0  0  0  0  0  0  0
    7.1459   -1.2746    0.0000 H   0  0  0  0  0  0  0  0  0  0  0  0
    2.5182    1.5390    0.0000 H   0  0  0  0  0  0  0  0  0  0  0  0
    9.8289   -1.2099    0.0000 H   0  0  0  0  0  0  0  0  0  0  0  0
   10.5878   -1.4533    0.0000 H   0  0  0  0  0  0  0  0  0  0  0  0
    3.5408   -1.6083    0.0000 H   0  0  0  0  0  0  0  0  0  0  0  0
    8.2214    0.9805    0.0000 H   0  0  0  0  0  0  0  0  0  0  0  0
   10.5771    0.6242    0.0000 H   0  0  0  0  0  0  0  0  0  0  0  0
   10.1761    1.4039    0.0000 H   0  0  0  0  0  0  0  0  0  0  0  0
    9.3964    1.0028    0.0000 H   0  0  0  0  0  0  0  0  0  0  0  0
    1.3941    0.3097    0.0000 H   0  0  0  0  0  0  0  0  0  0  0  0
    1.9088   -1.2746    0.0000 H   0  0  0  0  0  0  0  0  0  0  0  0
   11.4620   -1.2736    0.0000 H   0  0  0  0  0  0  0  0  0  0  0  0
   11.9367   -0.5364    0.0000 H   0  0  0  0  0  0  0  0  0  0  0  0
   11.1995   -0.0617    0.0000 H   0  0  0  0  0  0  0  0  0  0  0  0
  1 16  2  0  0  0  0
  2 10  1  0  0  0  0
  2 16  1  0  0  0  0
  2 31  1  0  0  0  0
  3  4  1  0  0  0  0
  3  5  2  0  0  0  0
  3  8  1  0  0  0  0
  4  6  1  0  0  0  0
  4 21  1  0  0  0  0
  4 22  1  0  0  0  0
  5  7  1  0  0  0  0
  5 11  1  0  0  0  0
  6  7  1  0  0  0  0
  6 12  2  0  0  0  0
  7 14  2  0  0  0  0
  8 10  2  0  0  0  0
  8 23  1  0  0  0  0
  9 15  1  0  0  0  0
  9 16  1  0  0  0  0
  9 17  1  6  0  0  0
  9 24  1  0  0  0  0
 10 13  1  0  0  0  0
 11 13  2  0  0  0  0
 11 25  1  0  0  0  0
 12 18  1  0  0  0  0
 12 27  1  0  0  0  0
 13 26  1  0  0  0  0
 14 19  1  0  0  0  0
 14 30  1  0  0  0  0
 15 20  1  0  0  0  0
 15 28  1  0  0  0  0
 15 29  1  0  0  0  0
 17 32  1  0  0  0  0
 17 33  1  0  0  0  0
 17 34  1  0  0  0  0
 18 19  2  0  0  0  0
 18 35  1  0  0  0  0
 19 36  1  0  0  0  0
 20 37  1  0  0  0  0
 20 38  1  0  0  0  0
 20 39  1  0  0  0  0
M  END
> <PUBCHEM_COMPOUND_CID>
35680445

> <PUBCHEM_COMPOUND_CANONICALIZED>
1

> <PUBCHEM_CACTVS_COMPLEXITY>
353

> <PUBCHEM_CACTVS_HBOND_ACCEPTOR>
1

> <PUBCHEM_CACTVS_HBOND_DONOR>
1

> <PUBCHEM_CACTVS_ROTATABLE_BOND>
3

> <PUBCHEM_CACTVS_SUBSKEYS>
AAADceB6IAAAAAAAAAAAAAAAAAAAAYAAAAAwYAAAAAAAAGABQAAAHgAQAAAADQiBmAAywILAAACIAiVSUACCAAAhAgAIiAEAZIgIIDLAkZGEIAhglADIyAcQgMAOiAAAQAAQAAAQAACAACAAAQAACAAAAA==

> <PUBCHEM_IUPAC_OPENEYE_NAME>
(2R)-N-(9H-fluoren-2-yl)-2-methyl-butanamide

> <PUBCHEM_IUPAC_CAS_NAME>
(2R)-N-(9H-fluoren-2-yl)-2-methylbutanamide

> <PUBCHEM_IUPAC_NAME>
(2R)-N-(9H-fluoren-2-yl)-2-methylbutanamide

> <PUBCHEM_IUPAC_SYSTEMATIC_NAME>
(2R)-N-(9H-fluoren-2-yl)-2-methyl-butanamide

> <PUBCHEM_IUPAC_TRADITIONAL_NAME>
(2R)-N-(9H-fluoren-2-yl)-2-methyl-butyramide

> <PUBCHEM_IUPAC_INCHI>
InChI=1S/C18H19NO/c1-3-12(2)18(20)19-15-8-9-17-14(11-15)10-13-6-4-5-7-16(13)17/h4-9,11-12H,3,10H2,1-2H3,(H,19,20)/t12-/m1/s1

> <PUBCHEM_IUPAC_INCHIKEY>
ZFODRBQMUWSPKU-GFCCVEGCSA-N

> <PUBCHEM_XLOGP3>
5

> <PUBCHEM_EXACT_MASS>
265.146664

> <PUBCHEM_MOLECULAR_FORMULA>
C18H19NO

> <PUBCHEM_MOLECULAR_WEIGHT>
265.34956

> <PUBCHEM_OPENEYE_CAN_SMILES>
CCC(C)C(=O)NC1=CC2=C(C=C1)C3=CC=CC=C3C2

> <PUBCHEM_OPENEYE_ISO_SMILES>
CC[C@@H](C)C(=O)NC1=CC2=C(C=C1)C3=CC=CC=C3C2

> <PUBCHEM_CACTVS_TPSA>
29.1

> <PUBCHEM_MONOISOTOPIC_WEIGHT>
265.146664

> <PUBCHEM_TOTAL_CHARGE>
0

> <PUBCHEM_HEAVY_ATOM_COUNT>
20

> <PUBCHEM_ATOM_DEF_STEREO_COUNT>
1

> <PUBCHEM_ATOM_UDEF_STEREO_COUNT>
0

> <PUBCHEM_BOND_DEF_STEREO_COUNT>
0

> <PUBCHEM_BOND_UDEF_STEREO_COUNT>
0

> <PUBCHEM_ISOTOPIC_ATOM_COUNT>
0

> <PUBCHEM_COMPONENT_COUNT>
1

> <PUBCHEM_CACTVS_TAUTO_COUNT>
2

> <PUBCHEM_COORDINATE_TYPE>
1
5
255

> <PUBCHEM_BONDANNOTATIONS>
10  13  8
11  13  8
12  18  8
14  19  8
18  19  8
3  5  8
3  8  8
5  11  8
6  12  8
6  7  8
7  14  8
8  10  8
9  17  6

$$$$
35680447
  -OEChem-06111304242D

 39 41  0     1  0  0  0  0  0999 V2000
    8.3987   -1.3027    0.0000 O   0  0  0  0  0  0  0  0  0  0  0  0
    8.0321    0.3901    0.0000 N   0  0  0  0  0  0  0  0  0  0  0  0
    5.3364    0.7149    0.0000 C   0  0  0  0  0  0  0  0  0  0  0  0
    4.5274    1.3027    0.0000 C   0  0  0  0  0  0  0  0  0  0  0  0
    5.0274   -0.2362    0.0000 C   0  0  0  0  0  0  0  0  0  0  0  0
    3.7183    0.7149    0.0000 C   0  0  0  0  0  0  0  0  0  0  0  0
    4.0274   -0.2362    0.0000 C   0  0  0  0  0  0  0  0  0  0  0  0
    6.3518    0.9471    0.0000 C   0  0  0  0  0  0  0  0  0  0  0  0
    9.6814   -0.1388    0.0000 C   0  0  1  0  0  0  0  0  0  0  0  0
    7.0547    0.1784    0.0000 C   0  0  0  0  0  0  0  0  0  0  0  0
    5.7123   -1.0209    0.0000 C   0  0  0  0  0  0  0  0  0  0  0  0
    2.7029    0.9471    0.0000 C   0  0  0  0  0  0  0  0  0  0  0  0
    6.7328   -0.8122    0.0000 C   0  0  0  0  0  0  0  0  0  0  0  0
    3.3424   -1.0209    0.0000 C   0  0  0  0  0  0  0  0  0  0  0  0
   10.3534   -0.8793    0.0000 C   0  0  0  0  0  0  0  0  0  0  0  0
    8.7041   -0.3504    0.0000 C   0  0  0  0  0  0  0  0  0  0  0  0
    9.9867    0.8135    0.0000 C   0  0  0  0  0  0  0  0  0  0  0  0
    2.0000    0.1784    0.0000 C   0  0  0  0  0  0  0  0  0  0  0  0
    2.3219   -0.8122    0.0000 C   0  0  0  0  0  0  0  0  0  0  0  0
   11.3307   -0.6676    0.0000 C   0  0  0  0  0  0  0  0  0  0  0  0
    4.9422    1.7634    0.0000 H   0  0  0  0  0  0  0  0  0  0  0  0
    4.1125    1.7634    0.0000 H   0  0  0  0  0  0  0  0  0  0  0  0
    6.5365    1.5390    0.0000 H   0  0  0  0  0  0  0  0  0  0  0  0
   10.2873   -0.0075    0.0000 H   0  0  0  0  0  0  0  0  0  0  0  0
    5.5139   -1.6083    0.0000 H   0  0  0  0  0  0  0  0  0  0  0  0
    7.1459   -1.2746    0.0000 H   0  0  0  0  0  0  0  0  0  0  0  0
    2.5182    1.5390    0.0000 H   0  0  0  0  0  0  0  0  0  0  0  0
    9.8289   -1.2099    0.0000 H   0  0  0  0  0  0  0  0  0  0  0  0
   10.5878   -1.4533    0.0000 H   0  0  0  0  0  0  0  0  0  0  0  0
    3.5408   -1.6083    0.0000 H   0  0  0  0  0  0  0  0  0  0  0  0
    8.2214    0.9805    0.0000 H   0  0  0  0  0  0  0  0  0  0  0  0
   10.5771    0.6242    0.0000 H   0  0  0  0  0  0  0  0  0  0  0  0
   10.1761    1.4039    0.0000 H   0  0  0  0  0  0  0  0  0  0  0  0
    9.3964    1.0028    0.0000 H   0  0  0  0  0  0  0  0  0  0  0  0
    1.3941    0.3097    0.0000 H   0  0  0  0  0  0  0  0  0  0  0  0
    1.9088   -1.2746    0.0000 H   0  0  0  0  0  0  0  0  0  0  0  0
   11.4620   -1.2736    0.0000 H   0  0  0  0  0  0  0  0  0  0  0  0
   11.9367   -0.5364    0.0000 H   0  0  0  0  0  0  0  0  0  0  0  0
   11.1995   -0.0617    0.0000 H   0  0  0  0  0  0  0  0  0  0  0  0
  1 16  2  0  0  0  0
  2 10  1  0  0  0  0
  2 16  1  0  0  0  0
  2 31  1  0  0  0  0
  3  4  1  0  0  0  0
  3  5  2  0  0  0  0
  3  8  1  0  0  0  0
  4  6  1  0  0  0  0
  4 21  1  0  0  0  0
  4 22  1  0  0  0  0
  5  7  1  0  0  0  0
  5 11  1  0  0  0  0
  6  7  1  0  0  0  0
  6 12  2  0  0  0  0
  7 14  2  0  0  0  0
  8 10  2  0  0  0  0
  8 23  1  0  0  0  0
  9 15  1  0  0  0  0
  9 16  1  0  0  0  0
  9 17  1  1  0  0  0
  9 24  1  0  0  0  0
 10 13  1  0  0  0  0
 11 13  2  0  0  0  0
 11 25  1  0  0  0  0
 12 18  1  0  0  0  0
 12 27  1  0  0  0  0
 13 26  1  0  0  0  0
 14 19  1  0  0  0  0
 14 30  1  0  0  0  0
 15 20  1  0  0  0  0
 15 28  1  0  0  0  0
 15 29  1  0  0  0  0
 17 32  1  0  0  0  0
 17 33  1  0  0  0  0
 17 34  1  0  0  0  0
 18 19  2  0  0  0  0
 18 35  1  0  0  0  0
 19 36  1  0  0  0  0
 20 37  1  0  0  0  0
 20 38  1  0  0  0  0
 20 39  1  0  0  0  0
M  END
> <PUBCHEM_COMPOUND_CID>
35680447

> <PUBCHEM_COMPOUND_CANONICALIZED>
1

> <PUBCHEM_CACTVS_COMPLEXITY>
353

> <PUBCHEM_CACTVS_HBOND_ACCEPTOR>
1

> <PUBCHEM_CACTVS_HBOND_DONOR>
1

> <PUBCHEM_CACTVS_ROTATABLE_BOND>
3

> <PUBCHEM_CACTVS_SUBSKEYS>
AAADceB6IAAAAAAAAAAAAAAAAAAAAYAAAAAwYAAAAAAAAGABQAAAHgAQAAAADQiBmAAywILAAACIAiVSUACCAAAhAgAIiAEAZIgIIDLAkZGEIAhglADIyAcQgMAOiAAAQAAQAAAQAACAACAAAQAACAAAAA==

> <PUBCHEM_IUPAC_OPENEYE_NAME>
(2S)-N-(9H-fluoren-2-yl)-2-methyl-butanamide

> <PUBCHEM_IUPAC_CAS_NAME>
(2S)-N-(9H-fluoren-2-yl)-2-methylbutanamide

> <PUBCHEM_IUPAC_NAME>
(2S)-N-(9H-fluoren-2-yl)-2-methylbutanamide

> <PUBCHEM_IUPAC_SYSTEMATIC_NAME>
(2S)-N-(9H-fluoren-2-yl)-2-methyl-butanamide

> <PUBCHEM_IUPAC_TRADITIONAL_NAME>
(2S)-N-(9H-fluoren-2-yl)-2-methyl-butyramide

> <PUBCHEM_IUPAC_INCHI>
InChI=1S/C18H19NO/c1-3-12(2)18(20)19-15-8-9-17-14(11-15)10-13-6-4-5-7-16(13)17/h4-9,11-12H,3,10H2,1-2H3,(H,19,20)/t12-/m0/s1

> <PUBCHEM_IUPAC_INCHIKEY>
ZFODRBQMUWSPKU-LBPRGKRZSA-N

> <PUBCHEM_XLOGP3>
5

> <PUBCHEM_EXACT_MASS>
265.146664

> <PUBCHEM_MOLECULAR_FORMULA>
C18H19NO

> <PUBCHEM_MOLECULAR_WEIGHT>
265.34956

> <PUBCHEM_OPENEYE_CAN_SMILES>
CCC(C)C(=O)NC1=CC2=C(C=C1)C3=CC=CC=C3C2

> <PUBCHEM_OPENEYE_ISO_SMILES>
CC[C@H](C)C(=O)NC1=CC2=C(C=C1)C3=CC=CC=C3C2

> <PUBCHEM_CACTVS_TPSA>
29.1

> <PUBCHEM_MONOISOTOPIC_WEIGHT>
265.146664

> <PUBCHEM_TOTAL_CHARGE>
0

> <PUBCHEM_HEAVY_ATOM_COUNT>
20

> <PUBCHEM_ATOM_DEF_STEREO_COUNT>
1

> <PUBCHEM_ATOM_UDEF_STEREO_COUNT>
0

> <PUBCHEM_BOND_DEF_STEREO_COUNT>
0

> <PUBCHEM_BOND_UDEF_STEREO_COUNT>
0

> <PUBCHEM_ISOTOPIC_ATOM_COUNT>
0

> <PUBCHEM_COMPONENT_COUNT>
1

> <PUBCHEM_CACTVS_TAUTO_COUNT>
2

> <PUBCHEM_COORDINATE_TYPE>
1
5
255

> <PUBCHEM_BONDANNOTATIONS>
10  13  8
11  13  8
12  18  8
14  19  8
18  19  8
3  5  8
3  8  8
5  11  8
6  12  8
6  7  8
7  14  8
8  10  8
9  17  5

$$$$
35698589
  -OEChem-06111304242D

 46 47  0     0  0  0  0  0  0999 V2000
    5.4641   -0.2500    0.0000 O   0  0  0  0  0  0  0  0  0  0  0  0
    9.7942    4.2500    0.0000 O   0  0  0  0  0  0  0  0  0  0  0  0
    2.8660   -4.7500    0.0000 O   0  0  0  0  0  0  0  0  0  0  0  0
    7.1962    0.7500    0.0000 O   0  0  0  0  0  0  0  0  0  0  0  0
    3.7320   -0.2500    0.0000 O   0  0  0  0  0  0  0  0  0  0  0  0
    2.0000   -3.2500    0.0000 O   0  0  0  0  0  0  0  0  0  0  0  0
    6.3301    5.2500    0.0000 O   0  5  0  0  0  0  0  0  0  0  0  0
    5.4641    3.7500    0.0000 O   0  0  0  0  0  0  0  0  0  0  0  0
    6.3301   -4.7500    0.0000 O   0  5  0  0  0  0  0  0  0  0  0  0
    7.1962   -3.2500    0.0000 O   0  0  0  0  0  0  0  0  0  0  0  0
    6.3301    2.2500    0.0000 N   0  0  0  0  0  0  0  0  0  0  0  0
    6.3301    4.2500    0.0000 N   0  3  0  0  0  0  0  0  0  0  0  0
    6.3301   -3.7500    0.0000 N   0  3  0  0  0  0  0  0  0  0  0  0
    7.1962    2.7500    0.0000 C   0  0  0  0  0  0  0  0  0  0  0  0
    4.5981   -1.7500    0.0000 C   0  0  0  0  0  0  0  0  0  0  0  0
    7.1962    3.7500    0.0000 C   0  0  0  0  0  0  0  0  0  0  0  0
    3.7320   -3.2500    0.0000 C   0  0  0  0  0  0  0  0  0  0  0  0
    3.7320   -2.2500    0.0000 C   0  0  0  0  0  0  0  0  0  0  0  0
    8.0622    2.2500    0.0000 C   0  0  0  0  0  0  0  0  0  0  0  0
    5.4641   -2.2500    0.0000 C   0  0  0  0  0  0  0  0  0  0  0  0
    5.4641   -3.2500    0.0000 C   0  0  0  0  0  0  0  0  0  0  0  0
    8.0622    4.2500    0.0000 C   0  0  0  0  0  0  0  0  0  0  0  0
    4.5981   -3.7500    0.0000 C   0  0  0  0  0  0  0  0  0  0  0  0
    8.9282    3.7500    0.0000 C   0  0  0  0  0  0  0  0  0  0  0  0
    8.9282    2.7500    0.0000 C   0  0  0  0  0  0  0  0  0  0  0  0
    5.4641    0.7500    0.0000 C   0  0  0  0  0  0  0  0  0  0  0  0
    6.3301    1.2500    0.0000 C   0  0  0  0  0  0  0  0  0  0  0  0
    4.5981   -0.7500    0.0000 C   0  0  0  0  0  0  0  0  0  0  0  0
    2.8660   -3.7500    0.0000 C   0  0  0  0  0  0  0  0  0  0  0  0
   10.6603    3.7500    0.0000 C   0  0  0  0  0  0  0  0  0  0  0  0
    2.0000   -5.2500    0.0000 C   0  0  0  0  0  0  0  0  0  0  0  0
    3.1951   -1.9400    0.0000 H   0  0  0  0  0  0  0  0  0  0  0  0
    8.0622    1.6300    0.0000 H   0  0  0  0  0  0  0  0  0  0  0  0
    6.0010   -1.9400    0.0000 H   0  0  0  0  0  0  0  0  0  0  0  0
    5.7932    2.5600    0.0000 H   0  0  0  0  0  0  0  0  0  0  0  0
    8.0622    4.8700    0.0000 H   0  0  0  0  0  0  0  0  0  0  0  0
    4.5981   -4.3700    0.0000 H   0  0  0  0  0  0  0  0  0  0  0  0
    9.4651    2.4400    0.0000 H   0  0  0  0  0  0  0  0  0  0  0  0
    5.2520    1.3326    0.0000 H   0  0  0  0  0  0  0  0  0  0  0  0
    4.8535    0.6423    0.0000 H   0  0  0  0  0  0  0  0  0  0  0  0
   10.3503    3.2131    0.0000 H   0  0  0  0  0  0  0  0  0  0  0  0
   11.1972    3.4400    0.0000 H   0  0  0  0  0  0  0  0  0  0  0  0
   10.9703    4.2869    0.0000 H   0  0  0  0  0  0  0  0  0  0  0  0
    1.6900   -4.7131    0.0000 H   0  0  0  0  0  0  0  0  0  0  0  0
    1.4631   -5.5600    0.0000 H   0  0  0  0  0  0  0  0  0  0  0  0
    2.3100   -5.7869    0.0000 H   0  0  0  0  0  0  0  0  0  0  0  0
  1 26  1  0  0  0  0
  1 28  1  0  0  0  0
  2 24  1  0  0  0  0
  2 30  1  0  0  0  0
  3 29  1  0  0  0  0
  3 31  1  0  0  0  0
  4 27  2  0  0  0  0
  5 28  2  0  0  0  0
  6 29  2  0  0  0  0
  7 12  1  0  0  0  0
  8 12  2  0  0  0  0
  9 13  1  0  0  0  0
 10 13  2  0  0  0  0
 11 14  1  0  0  0  0
 11 27  1  0  0  0  0
 11 35  1  0  0  0  0
 12 16  1  0  0  0  0
 13 21  1  0  0  0  0
 14 16  2  0  0  0  0
 14 19  1  0  0  0  0
 15 18  1  0  0  0  0
 15 20  2  0  0  0  0
 15 28  1  0  0  0  0
 16 22  1  0  0  0  0
 17 18  2  0  0  0  0
 17 23  1  0  0  0  0
 17 29  1  0  0  0  0
 18 32  1  0  0  0  0
 19 25  2  0  0  0  0
 19 33  1  0  0  0  0
 20 21  1  0  0  0  0
 20 34  1  0  0  0  0
 21 23  2  0  0  0  0
 22 24  2  0  0  0  0
 22 36  1  0  0  0  0
 23 37  1  0  0  0  0
 24 25  1  0  0  0  0
 25 38  1  0  0  0  0
 26 27  1  0  0  0  0
 26 39  1  0  0  0  0
 26 40  1  0  0  0  0
 30 41  1  0  0  0  0
 30 42  1  0  0  0  0
 30 43  1  0  0  0  0
 31 44  1  0  0  0  0
 31 45  1  0  0  0  0
 31 46  1  0  0  0  0
M  CHG  4   7  -1   9  -1  12   1  13   1
M  END
> <PUBCHEM_COMPOUND_CID>
35698589

> <PUBCHEM_COMPOUND_CANONICALIZED>
1

> <PUBCHEM_CACTVS_COMPLEXITY>
704

> <PUBCHEM_CACTVS_HBOND_ACCEPTOR>
10

> <PUBCHEM_CACTVS_HBOND_DONOR>
1

> <PUBCHEM_CACTVS_ROTATABLE_BOND>
8

> <PUBCHEM_CACTVS_SUBSKEYS>
AAADccB7PAAAAAAAAAAAAAAAAAAAAAAAAAAwYAAAAAAAAAABQAAAHgAUAAAADAyhmAIyzoLQRACJAiXSWwKCCAAlIgAoiAFGfMoOZjLEtZ+XMShm1JnY6Ye8/mmOAEACQgAAACAAgASEAAAAQAAAAAAAAA==

> <PUBCHEM_IUPAC_OPENEYE_NAME>
O3-[2-(4-methoxy-2-nitro-anilino)-2-oxo-ethyl] O1-methyl 5-nitrobenzene-1,3-dicarboxylate

> <PUBCHEM_IUPAC_CAS_NAME>
5-nitrobenzene-1,3-dicarboxylic acid O3-[2-(4-methoxy-2-nitroanilino)-2-oxoethyl] ester O1-methyl ester

> <PUBCHEM_IUPAC_NAME>
3-O-[2-(4-methoxy-2-nitroanilino)-2-oxoethyl] 1-O-methyl 5-nitrobenzene-1,3-dicarboxylate

> <PUBCHEM_IUPAC_SYSTEMATIC_NAME>
O3-[2-[(4-methoxy-2-nitro-phenyl)amino]-2-oxidanylidene-ethyl] O1-methyl 5-nitrobenzene-1,3-dicarboxylate

> <PUBCHEM_IUPAC_TRADITIONAL_NAME>
5-nitrobenzene-1,3-dicarboxylic acid O3-[2-keto-2-(4-methoxy-2-nitro-anilino)ethyl] ester O1-methyl ester

> <PUBCHEM_IUPAC_INCHI>
InChI=1S/C18H15N3O10/c1-29-13-3-4-14(15(8-13)21(27)28)19-16(22)9-31-18(24)11-5-10(17(23)30-2)6-12(7-11)20(25)26/h3-8H,9H2,1-2H3,(H,19,22)

> <PUBCHEM_IUPAC_INCHIKEY>
FJMXJKNNNPYTTR-UHFFFAOYSA-N

> <PUBCHEM_XLOGP3>
2.4

> <PUBCHEM_EXACT_MASS>
433.075744

> <PUBCHEM_MOLECULAR_FORMULA>
C18H15N3O10

> <PUBCHEM_MOLECULAR_WEIGHT>
433.3258

> <PUBCHEM_OPENEYE_CAN_SMILES>
COC1=CC(=C(C=C1)NC(=O)COC(=O)C2=CC(=CC(=C2)C(=O)OC)[N+](=O)[O-])[N+](=O)[O-]

> <PUBCHEM_OPENEYE_ISO_SMILES>
COC1=CC(=C(C=C1)NC(=O)COC(=O)C2=CC(=CC(=C2)C(=O)OC)[N+](=O)[O-])[N+](=O)[O-]

> <PUBCHEM_CACTVS_TPSA>
183

> <PUBCHEM_MONOISOTOPIC_WEIGHT>
433.075744

> <PUBCHEM_TOTAL_CHARGE>
0

> <PUBCHEM_HEAVY_ATOM_COUNT>
31

> <PUBCHEM_ATOM_DEF_STEREO_COUNT>
0

> <PUBCHEM_ATOM_UDEF_STEREO_COUNT>
0

> <PUBCHEM_BOND_DEF_STEREO_COUNT>
0

> <PUBCHEM_BOND_UDEF_STEREO_COUNT>
0

> <PUBCHEM_ISOTOPIC_ATOM_COUNT>
0

> <PUBCHEM_COMPONENT_COUNT>
1

> <PUBCHEM_CACTVS_TAUTO_COUNT>
2

> <PUBCHEM_COORDINATE_TYPE>
1
5
255

> <PUBCHEM_BONDANNOTATIONS>
14  16  8
14  19  8
15  18  8
15  20  8
16  22  8
17  18  8
17  23  8
19  25  8
20  21  8
21  23  8
22  24  8
24  25  8

$$$$
