64250956
  -OEChem-11301218242D

 46 48  0     1  0  0  0  0  0999 V2000
    6.2781    1.4715    0.0000 N   0  0  0  0  0  0  0  0  0  0  0  0
    4.6783   -2.2452    0.0000 N   0  0  0  0  0  0  0  0  0  0  0  0
    7.9244    0.9335    0.0000 C   0  0  3  0  0  0  0  0  0  0  0  0
    7.2566    1.6778    0.0000 C   0  0  3  0  0  0  0  0  0  0  0  0
    8.9030    1.1397    0.0000 C   0  0  0  0  0  0  0  0  0  0  0  0
    7.5673    2.6283    0.0000 C   0  0  0  0  0  0  0  0  0  0  0  0
    9.2136    2.0902    0.0000 C   0  0  0  0  0  0  0  0  0  0  0  0
    8.5458    2.8345    0.0000 C   0  0  0  0  0  0  0  0  0  0  0  0
    7.6138   -0.0171    0.0000 C   0  0  0  0  0  0  0  0  0  0  0  0
    5.9674    0.5210    0.0000 C   0  0  0  0  0  0  0  0  0  0  0  0
    8.2816   -0.7614    0.0000 C   0  0  0  0  0  0  0  0  0  0  0  0
    4.9889    0.3148    0.0000 C   0  0  0  0  0  0  0  0  0  0  0  0
    4.6783   -0.6357    0.0000 C   0  0  0  0  0  0  0  0  0  0  0  0
    3.7320   -0.9404    0.0000 C   0  0  0  0  0  0  0  0  0  0  0  0
    5.2619   -1.4404    0.0000 C   0  0  0  0  0  0  0  0  0  0  0  0
    3.7320   -1.9404    0.0000 C   0  0  0  0  0  0  0  0  0  0  0  0
    2.8660   -0.4404    0.0000 C   0  0  0  0  0  0  0  0  0  0  0  0
    2.8660   -2.4404    0.0000 C   0  0  0  0  0  0  0  0  0  0  0  0
    2.0000   -0.9404    0.0000 C   0  0  0  0  0  0  0  0  0  0  0  0
    2.0000   -1.9404    0.0000 C   0  0  0  0  0  0  0  0  0  0  0  0
    8.3385    0.4720    0.0000 H   0  0  0  0  0  0  0  0  0  0  0  0
    7.0640    1.0884    0.0000 H   0  0  0  0  0  0  0  0  0  0  0  0
    8.9235    0.5200    0.0000 H   0  0  0  0  0  0  0  0  0  0  0  0
    9.5168    1.0523    0.0000 H   0  0  0  0  0  0  0  0  0  0  0  0
    7.5467    3.2479    0.0000 H   0  0  0  0  0  0  0  0  0  0  0  0
    6.9534    2.7156    0.0000 H   0  0  0  0  0  0  0  0  0  0  0  0
    9.7605    1.7982    0.0000 H   0  0  0  0  0  0  0  0  0  0  0  0
    9.5962    2.5781    0.0000 H   0  0  0  0  0  0  0  0  0  0  0  0
    9.0721    3.1621    0.0000 H   0  0  0  0  0  0  0  0  0  0  0  0
    8.3145    3.4098    0.0000 H   0  0  0  0  0  0  0  0  0  0  0  0
    7.0669    0.2750    0.0000 H   0  0  0  0  0  0  0  0  0  0  0  0
    7.2312   -0.5050    0.0000 H   0  0  0  0  0  0  0  0  0  0  0  0
    5.8640    1.9330    0.0000 H   0  0  0  0  0  0  0  0  0  0  0  0
    5.9880   -0.0986    0.0000 H   0  0  0  0  0  0  0  0  0  0  0  0
    6.5812    0.4337    0.0000 H   0  0  0  0  0  0  0  0  0  0  0  0
    7.8202   -1.1754    0.0000 H   0  0  0  0  0  0  0  0  0  0  0  0
    8.6957   -1.2228    0.0000 H   0  0  0  0  0  0  0  0  0  0  0  0
    8.7431   -0.3473    0.0000 H   0  0  0  0  0  0  0  0  0  0  0  0
    4.9684    0.9345    0.0000 H   0  0  0  0  0  0  0  0  0  0  0  0
    4.3751    0.4022    0.0000 H   0  0  0  0  0  0  0  0  0  0  0  0
    5.8819   -1.4404    0.0000 H   0  0  0  0  0  0  0  0  0  0  0  0
    4.8709   -2.8345    0.0000 H   0  0  0  0  0  0  0  0  0  0  0  0
    2.8660    0.1796    0.0000 H   0  0  0  0  0  0  0  0  0  0  0  0
    2.8660   -3.0604    0.0000 H   0  0  0  0  0  0  0  0  0  0  0  0
    1.4631   -0.6304    0.0000 H   0  0  0  0  0  0  0  0  0  0  0  0
    1.4631   -2.2504    0.0000 H   0  0  0  0  0  0  0  0  0  0  0  0
  1  4  1  0  0  0  0
  1 10  1  0  0  0  0
  1 33  1  0  0  0  0
  2 15  1  0  0  0  0
  2 16  1  0  0  0  0
  2 42  1  0  0  0  0
  3  4  1  0  0  0  0
  3  5  1  0  0  0  0
  3  9  1  0  0  0  0
  3 21  1  0  0  0  0
  4  6  1  0  0  0  0
  4 22  1  0  0  0  0
  5  7  1  0  0  0  0
  5 23  1  0  0  0  0
  5 24  1  0  0  0  0
  6  8  1  0  0  0  0
  6 25  1  0  0  0  0
  6 26  1  0  0  0  0
  7  8  1  0  0  0  0
  7 27  1  0  0  0  0
  7 28  1  0  0  0  0
  8 29  1  0  0  0  0
  8 30  1  0  0  0  0
  9 11  1  0  0  0  0
  9 31  1  0  0  0  0
  9 32  1  0  0  0  0
 10 12  1  0  0  0  0
 10 34  1  0  0  0  0
 10 35  1  0  0  0  0
 11 36  1  0  0  0  0
 11 37  1  0  0  0  0
 11 38  1  0  0  0  0
 12 13  1  0  0  0  0
 12 39  1  0  0  0  0
 12 40  1  0  0  0  0
 13 14  1  0  0  0  0
 13 15  2  0  0  0  0
 14 16  1  0  0  0  0
 14 17  2  0  0  0  0
 15 41  1  0  0  0  0
 16 18  2  0  0  0  0
 17 19  1  0  0  0  0
 17 43  1  0  0  0  0
 18 20  1  0  0  0  0
 18 44  1  0  0  0  0
 19 20  2  0  0  0  0
 19 45  1  0  0  0  0
 20 46  1  0  0  0  0
M  END
> <PUBCHEM_COMPOUND_CID>
64250956

> <PUBCHEM_COMPOUND_CANONICALIZED>
1

> <PUBCHEM_CACTVS_COMPLEXITY>
291

> <PUBCHEM_CACTVS_HBOND_ACCEPTOR>
1

> <PUBCHEM_CACTVS_HBOND_DONOR>
2

> <PUBCHEM_CACTVS_ROTATABLE_BOND>
5

> <PUBCHEM_CACTVS_SUBSKEYS>
AAADceB7AAAAAAAAAAAAAAAAAAAAAWAAAAAwYAAAAAAAAFgB8AAAHAAQAAAADSjBHgQ+wPLJkACgAzRnRACCgCAxAiAI2aA4ZJgIIOLAkZGEIAhgkADIyAcQgMAOgAAAAAACAAAAAAAAAAQAAAAAAAAAAA==

> <PUBCHEM_IUPAC_OPENEYE_NAME>
2-ethyl-N-[2-(1H-indol-3-yl)ethyl]cyclohexanamine

> <PUBCHEM_IUPAC_CAS_NAME>
2-ethyl-N-[2-(1H-indol-3-yl)ethyl]-1-cyclohexanamine

> <PUBCHEM_IUPAC_NAME>
2-ethyl-N-[2-(1H-indol-3-yl)ethyl]cyclohexan-1-amine

> <PUBCHEM_IUPAC_SYSTEMATIC_NAME>
2-ethyl-N-[2-(1H-indol-3-yl)ethyl]cyclohexan-1-amine

> <PUBCHEM_IUPAC_TRADITIONAL_NAME>
(2-ethylcyclohexyl)-[2-(1H-indol-3-yl)ethyl]amine

> <PUBCHEM_IUPAC_INCHI>
InChI=1S/C18H26N2/c1-2-14-7-3-5-9-17(14)19-12-11-15-13-20-18-10-6-4-8-16(15)18/h4,6,8,10,13-14,17,19-20H,2-3,5,7,9,11-12H2,1H3

> <PUBCHEM_IUPAC_INCHIKEY>
AZUFUCOKMSRPBF-UHFFFAOYSA-N

> <PUBCHEM_XLOGP3>
4.7

> <PUBCHEM_EXACT_MASS>
270.209599

> <PUBCHEM_MOLECULAR_FORMULA>
C18H26N2

> <PUBCHEM_MOLECULAR_WEIGHT>
270.41244

> <PUBCHEM_OPENEYE_CAN_SMILES>
CCC1CCCCC1NCCC2=CNC3=CC=CC=C32

> <PUBCHEM_OPENEYE_ISO_SMILES>
CCC1CCCCC1NCCC2=CNC3=CC=CC=C32

> <PUBCHEM_CACTVS_TPSA>
27.8

> <PUBCHEM_MONOISOTOPIC_WEIGHT>
270.209599

> <PUBCHEM_TOTAL_CHARGE>
0

> <PUBCHEM_HEAVY_ATOM_COUNT>
20

> <PUBCHEM_ATOM_DEF_STEREO_COUNT>
0

> <PUBCHEM_ATOM_UDEF_STEREO_COUNT>
2

> <PUBCHEM_BOND_DEF_STEREO_COUNT>
0

> <PUBCHEM_BOND_UDEF_STEREO_COUNT>
0

> <PUBCHEM_ISOTOPIC_ATOM_COUNT>
0

> <PUBCHEM_COMPONENT_COUNT>
1

> <PUBCHEM_CACTVS_TAUTO_COUNT>
1

> <PUBCHEM_COORDINATE_TYPE>
1
5
255

> <PUBCHEM_BONDANNOTATIONS>
4  1  3
13  14  8
13  15  8
14  16  8
14  17  8
16  18  8
17  19  8
18  20  8
19  20  8
2  15  8
2  16  8
3  9  3

$$$$
64253398
  -OEChem-11301218242D

 35 36  0     1  0  0  0  0  0999 V2000
    7.5981    1.4330    0.0000 Cl  0  0  0  0  0  0  0  0  0  0  0  0
    4.0981    0.5670    0.0000 O   0  0  0  0  0  0  0  0  0  0  0  0
    3.7320   -0.7990    0.0000 C   0  0  3  0  0  0  0  0  0  0  0  0
    4.5981   -0.2990    0.0000 C   0  0  3  0  0  0  0  0  0  0  0  0
    3.7320   -1.7990    0.0000 C   0  0  0  0  0  0  0  0  0  0  0  0
    5.4641   -0.7990    0.0000 C   0  0  0  0  0  0  0  0  0  0  0  0
    4.5981   -2.2990    0.0000 C   0  0  0  0  0  0  0  0  0  0  0  0
    5.4641   -1.7990    0.0000 C   0  0  0  0  0  0  0  0  0  0  0  0
    2.8660   -0.2990    0.0000 C   0  0  0  0  0  0  0  0  0  0  0  0
    5.0981    0.5670    0.0000 C   0  0  0  0  0  0  0  0  0  0  0  0
    2.0000   -0.7990    0.0000 C   0  0  0  0  0  0  0  0  0  0  0  0
    6.0981    0.5670    0.0000 C   0  0  0  0  0  0  0  0  0  0  0  0
    4.5981    1.4330    0.0000 C   0  0  0  0  0  0  0  0  0  0  0  0
    6.5981    1.4330    0.0000 C   0  0  0  0  0  0  0  0  0  0  0  0
    5.0981    2.2990    0.0000 C   0  0  0  0  0  0  0  0  0  0  0  0
    6.0981    2.2990    0.0000 C   0  0  0  0  0  0  0  0  0  0  0  0
    3.7320   -0.1790    0.0000 H   0  0  0  0  0  0  0  0  0  0  0  0
    3.1215   -1.6914    0.0000 H   0  0  0  0  0  0  0  0  0  0  0  0
    3.5200   -2.3816    0.0000 H   0  0  0  0  0  0  0  0  0  0  0  0
    6.0747   -0.9067    0.0000 H   0  0  0  0  0  0  0  0  0  0  0  0
    5.6762   -0.2164    0.0000 H   0  0  0  0  0  0  0  0  0  0  0  0
    4.1996   -2.7740    0.0000 H   0  0  0  0  0  0  0  0  0  0  0  0
    4.9966   -2.7740    0.0000 H   0  0  0  0  0  0  0  0  0  0  0  0
    5.6762   -2.3816    0.0000 H   0  0  0  0  0  0  0  0  0  0  0  0
    6.0747   -1.6914    0.0000 H   0  0  0  0  0  0  0  0  0  0  0  0
    3.2646    0.1759    0.0000 H   0  0  0  0  0  0  0  0  0  0  0  0
    2.4675    0.1759    0.0000 H   0  0  0  0  0  0  0  0  0  0  0  0
    3.4781    0.5670    0.0000 H   0  0  0  0  0  0  0  0  0  0  0  0
    1.6900   -0.2621    0.0000 H   0  0  0  0  0  0  0  0  0  0  0  0
    1.4631   -1.1090    0.0000 H   0  0  0  0  0  0  0  0  0  0  0  0
    2.3100   -1.3360    0.0000 H   0  0  0  0  0  0  0  0  0  0  0  0
    6.4081    0.0301    0.0000 H   0  0  0  0  0  0  0  0  0  0  0  0
    3.9781    1.4330    0.0000 H   0  0  0  0  0  0  0  0  0  0  0  0
    4.7881    2.8360    0.0000 H   0  0  0  0  0  0  0  0  0  0  0  0
    6.4081    2.8360    0.0000 H   0  0  0  0  0  0  0  0  0  0  0  0
  1 14  1  0  0  0  0
  2  4  1  0  0  0  0
  2 28  1  0  0  0  0
  3  4  1  0  0  0  0
  3  5  1  0  0  0  0
  3  9  1  0  0  0  0
  3 17  1  0  0  0  0
  4  6  1  0  0  0  0
  4 10  1  0  0  0  0
  5  7  1  0  0  0  0
  5 18  1  0  0  0  0
  5 19  1  0  0  0  0
  6  8  1  0  0  0  0
  6 20  1  0  0  0  0
  6 21  1  0  0  0  0
  7  8  1  0  0  0  0
  7 22  1  0  0  0  0
  7 23  1  0  0  0  0
  8 24  1  0  0  0  0
  8 25  1  0  0  0  0
  9 11  1  0  0  0  0
  9 26  1  0  0  0  0
  9 27  1  0  0  0  0
 10 12  2  0  0  0  0
 10 13  1  0  0  0  0
 11 29  1  0  0  0  0
 11 30  1  0  0  0  0
 11 31  1  0  0  0  0
 12 14  1  0  0  0  0
 12 32  1  0  0  0  0
 13 15  2  0  0  0  0
 13 33  1  0  0  0  0
 14 16  2  0  0  0  0
 15 16  1  0  0  0  0
 15 34  1  0  0  0  0
 16 35  1  0  0  0  0
M  END
> <PUBCHEM_COMPOUND_CID>
64253398

> <PUBCHEM_COMPOUND_CANONICALIZED>
1

> <PUBCHEM_CACTVS_COMPLEXITY>
231

> <PUBCHEM_CACTVS_HBOND_ACCEPTOR>
1

> <PUBCHEM_CACTVS_HBOND_DONOR>
1

> <PUBCHEM_CACTVS_ROTATABLE_BOND>
2

> <PUBCHEM_CACTVS_SUBSKEYS>
AAADceBwIAAEAAAAAAAAAAAAAAAAAAAAAAAwYAAAAAAAAAABAAAAGgIACAAADUaAmCAyAIAAAgCAAiBCAAACAAAgBQAIiAAACogIJiKBExCAcAAkwAEImAeAwOAOgAAAIAAAAAAAAABAADAAAAAAAAAAAA==

> <PUBCHEM_IUPAC_OPENEYE_NAME>
1-(3-chlorophenyl)-2-ethyl-cyclohexanol

> <PUBCHEM_IUPAC_CAS_NAME>
1-(3-chlorophenyl)-2-ethyl-1-cyclohexanol

> <PUBCHEM_IUPAC_NAME>
1-(3-chlorophenyl)-2-ethylcyclohexan-1-ol

> <PUBCHEM_IUPAC_SYSTEMATIC_NAME>
1-(3-chlorophenyl)-2-ethyl-cyclohexan-1-ol

> <PUBCHEM_IUPAC_TRADITIONAL_NAME>
1-(3-chlorophenyl)-2-ethyl-cyclohexanol

> <PUBCHEM_IUPAC_INCHI>
InChI=1S/C14H19ClO/c1-2-11-6-3-4-9-14(11,16)12-7-5-8-13(15)10-12/h5,7-8,10-11,16H,2-4,6,9H2,1H3

> <PUBCHEM_IUPAC_INCHIKEY>
BMWPUCXRRNMISQ-UHFFFAOYSA-N

> <PUBCHEM_XLOGP3>
4.1

> <PUBCHEM_EXACT_MASS>
238.112443

> <PUBCHEM_MOLECULAR_FORMULA>
C14H19ClO

> <PUBCHEM_MOLECULAR_WEIGHT>
238.75306

> <PUBCHEM_OPENEYE_CAN_SMILES>
CCC1CCCCC1(C2=CC(=CC=C2)Cl)O

> <PUBCHEM_OPENEYE_ISO_SMILES>
CCC1CCCCC1(C2=CC(=CC=C2)Cl)O

> <PUBCHEM_CACTVS_TPSA>
20.2

> <PUBCHEM_MONOISOTOPIC_WEIGHT>
238.112443

> <PUBCHEM_TOTAL_CHARGE>
0

> <PUBCHEM_HEAVY_ATOM_COUNT>
16

> <PUBCHEM_ATOM_DEF_STEREO_COUNT>
0

> <PUBCHEM_ATOM_UDEF_STEREO_COUNT>
2

> <PUBCHEM_BOND_DEF_STEREO_COUNT>
0

> <PUBCHEM_BOND_UDEF_STEREO_COUNT>
0

> <PUBCHEM_ISOTOPIC_ATOM_COUNT>
0

> <PUBCHEM_COMPONENT_COUNT>
1

> <PUBCHEM_CACTVS_TAUTO_COUNT>
1

> <PUBCHEM_COORDINATE_TYPE>
1
5
255

> <PUBCHEM_BONDANNOTATIONS>
10  12  8
10  13  8
12  14  8
13  15  8
14  16  8
15  16  8
4  2  3
3  9  3

$$$$
64263146
  -OEChem-11301218252D

 36 38  0     0  0  0  0  0  0999 V2000
    2.0000    0.5670    0.0000 O   0  0  0  0  0  0  0  0  0  0  0  0
    3.7320    0.5670    0.0000 N   0  0  0  0  0  0  0  0  0  0  0  0
    4.5981    2.0670    0.0000 C   0  0  0  0  0  0  0  0  0  0  0  0
    5.4641    0.5670    0.0000 C   0  0  0  0  0  0  0  0  0  0  0  0
    5.5981    2.0670    0.0000 C   0  0  0  0  0  0  0  0  0  0  0  0
    5.0981    2.9330    0.0000 C   0  0  0  0  0  0  0  0  0  0  0  0
    6.4641    0.5670    0.0000 C   0  0  0  0  0  0  0  0  0  0  0  0
    5.9641    1.4330    0.0000 C   0  0  0  0  0  0  0  0  0  0  0  0
    3.7320    1.5670    0.0000 C   0  0  0  0  0  0  0  0  0  0  0  0
    4.5981    0.0670    0.0000 C   0  0  0  0  0  0  0  0  0  0  0  0
    2.8660    0.0670    0.0000 C   0  0  0  0  0  0  0  0  0  0  0  0
    2.8660   -0.9330    0.0000 C   0  0  0  0  0  0  0  0  0  0  0  0
    2.0000   -1.4330    0.0000 C   0  0  0  0  0  0  0  0  0  0  0  0
    3.7320   -1.4330    0.0000 C   0  0  0  0  0  0  0  0  0  0  0  0
    2.0000   -2.4330    0.0000 C   0  0  0  0  0  0  0  0  0  0  0  0
    3.7320   -2.4330    0.0000 C   0  0  0  0  0  0  0  0  0  0  0  0
    2.8660   -2.9330    0.0000 C   0  0  0  0  0  0  0  0  0  0  0  0
    5.6246   -0.0319    0.0000 H   0  0  0  0  0  0  0  0  0  0  0  0
    4.7585    1.4681    0.0000 H   0  0  0  0  0  0  0  0  0  0  0  0
    5.7057    1.4564    0.0000 H   0  0  0  0  0  0  0  0  0  0  0  0
    5.5730    3.3315    0.0000 H   0  0  0  0  0  0  0  0  0  0  0  0
    4.6231    3.3315    0.0000 H   0  0  0  0  0  0  0  0  0  0  0  0
    6.5718   -0.0436    0.0000 H   0  0  0  0  0  0  0  0  0  0  0  0
    7.0467    0.7790    0.0000 H   0  0  0  0  0  0  0  0  0  0  0  0
    6.4390    1.8315    0.0000 H   0  0  0  0  0  0  0  0  0  0  0  0
    5.4892    1.8315    0.0000 H   0  0  0  0  0  0  0  0  0  0  0  0
    6.1807    2.2790    0.0000 H   0  0  0  0  0  0  0  0  0  0  0  0
    4.1996   -0.4080    0.0000 H   0  0  0  0  0  0  0  0  0  0  0  0
    4.9966   -0.4080    0.0000 H   0  0  0  0  0  0  0  0  0  0  0  0
    3.5200    2.1496    0.0000 H   0  0  0  0  0  0  0  0  0  0  0  0
    3.1215    1.4593    0.0000 H   0  0  0  0  0  0  0  0  0  0  0  0
    1.4631   -1.1230    0.0000 H   0  0  0  0  0  0  0  0  0  0  0  0
    4.2690   -1.1230    0.0000 H   0  0  0  0  0  0  0  0  0  0  0  0
    1.4631   -2.7430    0.0000 H   0  0  0  0  0  0  0  0  0  0  0  0
    4.2690   -2.7430    0.0000 H   0  0  0  0  0  0  0  0  0  0  0  0
    2.8660   -3.5530    0.0000 H   0  0  0  0  0  0  0  0  0  0  0  0
  1 11  2  0  0  0  0
  2  9  1  0  0  0  0
  2 10  1  0  0  0  0
  2 11  1  0  0  0  0
  3  5  1  0  0  0  0
  3  6  1  0  0  0  0
  3  9  1  0  0  0  0
  3 19  1  0  0  0  0
  4  7  1  0  0  0  0
  4  8  1  0  0  0  0
  4 10  1  0  0  0  0
  4 18  1  0  0  0  0
  5  6  1  0  0  0  0
  5 20  1  0  0  0  0
  5 27  1  0  0  0  0
  6 21  1  0  0  0  0
  6 22  1  0  0  0  0
  7  8  1  0  0  0  0
  7 23  1  0  0  0  0
  7 24  1  0  0  0  0
  8 25  1  0  0  0  0
  8 26  1  0  0  0  0
  9 30  1  0  0  0  0
  9 31  1  0  0  0  0
 10 28  1  0  0  0  0
 10 29  1  0  0  0  0
 11 12  1  0  0  0  0
 12 13  2  0  0  0  0
 12 14  1  0  0  0  0
 13 15  1  0  0  0  0
 13 32  1  0  0  0  0
 14 16  2  0  0  0  0
 14 33  1  0  0  0  0
 15 17  2  0  0  0  0
 15 34  1  0  0  0  0
 16 17  1  0  0  0  0
 16 35  1  0  0  0  0
 17 36  1  0  0  0  0
M  END
> <PUBCHEM_COMPOUND_CID>
64263146

> <PUBCHEM_COMPOUND_CANONICALIZED>
1

> <PUBCHEM_CACTVS_COMPLEXITY>
261

> <PUBCHEM_CACTVS_HBOND_ACCEPTOR>
1

> <PUBCHEM_CACTVS_HBOND_DONOR>
0

> <PUBCHEM_CACTVS_ROTATABLE_BOND>
5

> <PUBCHEM_CACTVS_SUBSKEYS>
AAADceByIAAAAAAAAAAAAAAAGDAAAAAAAAAwAAAAAAAAAAABAAAAHgAAAAAADQDBmAQwAIMAAACIAiFSEACCAAAkAAAIiAEIBMgIIDKAlRGEIQhghgCIiYcYiACOAAAAAAAAAAAAAAAAAAAAAAAAAAAAAA==

> <PUBCHEM_IUPAC_OPENEYE_NAME>
N,N-bis(cyclopropylmethyl)benzamide

> <PUBCHEM_IUPAC_CAS_NAME>
N,N-bis(cyclopropylmethyl)benzamide

> <PUBCHEM_IUPAC_NAME>
N,N-bis(cyclopropylmethyl)benzamide

> <PUBCHEM_IUPAC_SYSTEMATIC_NAME>
N,N-bis(cyclopropylmethyl)benzamide

> <PUBCHEM_IUPAC_TRADITIONAL_NAME>
N,N-bis(cyclopropylmethyl)benzamide

> <PUBCHEM_IUPAC_INCHI>
InChI=1S/C15H19NO/c17-15(14-4-2-1-3-5-14)16(10-12-6-7-12)11-13-8-9-13/h1-5,12-13H,6-11H2

> <PUBCHEM_IUPAC_INCHIKEY>
VSYDPXWTEUMAFQ-UHFFFAOYSA-N

> <PUBCHEM_XLOGP3>
2

> <PUBCHEM_EXACT_MASS>
229.146664

> <PUBCHEM_MOLECULAR_FORMULA>
C15H19NO

> <PUBCHEM_MOLECULAR_WEIGHT>
229.31746

> <PUBCHEM_OPENEYE_CAN_SMILES>
C1CC1CN(CC2CC2)C(=O)C3=CC=CC=C3

> <PUBCHEM_OPENEYE_ISO_SMILES>
C1CC1CN(CC2CC2)C(=O)C3=CC=CC=C3

> <PUBCHEM_CACTVS_TPSA>
20.3

> <PUBCHEM_MONOISOTOPIC_WEIGHT>
229.146664

> <PUBCHEM_TOTAL_CHARGE>
0

> <PUBCHEM_HEAVY_ATOM_COUNT>
17

> <PUBCHEM_ATOM_DEF_STEREO_COUNT>
0

> <PUBCHEM_ATOM_UDEF_STEREO_COUNT>
0

> <PUBCHEM_BOND_DEF_STEREO_COUNT>
0

> <PUBCHEM_BOND_UDEF_STEREO_COUNT>
0

> <PUBCHEM_ISOTOPIC_ATOM_COUNT>
0

> <PUBCHEM_COMPONENT_COUNT>
1

> <PUBCHEM_CACTVS_TAUTO_COUNT>
1

> <PUBCHEM_COORDINATE_TYPE>
1
5
255

> <PUBCHEM_BONDANNOTATIONS>
12  13  8
12  14  8
13  15  8
14  16  8
15  17  8
16  17  8

$$$$
