31579064
  -OEChem-03221309322D

 40 41  0     0  0  0  0  0  0999 V2000
    4.5981    1.5000    0.0000 S   0  0  0  0  0  0  0  0  0  0  0  0
    8.9282    5.0000    0.0000 F   0  0  0  0  0  0  0  0  0  0  0  0
    7.5622    5.3660    0.0000 F   0  0  0  0  0  0  0  0  0  0  0  0
    8.5622    3.6340    0.0000 F   0  0  0  0  0  0  0  0  0  0  0  0
    2.0000   -5.0000    0.0000 F   0  0  0  0  0  0  0  0  0  0  0  0
    3.3660   -5.3660    0.0000 F   0  0  0  0  0  0  0  0  0  0  0  0
    2.3660   -3.6340    0.0000 F   0  0  0  0  0  0  0  0  0  0  0  0
    5.5981    1.5000    0.0000 O   0  0  0  0  0  0  0  0  0  0  0  0
    3.5981    1.5000    0.0000 O   0  0  0  0  0  0  0  0  0  0  0  0
    5.4641   -3.0000    0.0000 O   0  0  0  0  0  0  0  0  0  0  0  0
    4.5981    2.5000    0.0000 N   0  0  0  0  0  0  0  0  0  0  0  0
    3.7321   -3.0000    0.0000 N   0  0  0  0  0  0  0  0  0  0  0  0
    4.5981    0.5000    0.0000 C   0  0  0  0  0  0  0  0  0  0  0  0
    5.4641    3.0000    0.0000 C   0  0  0  0  0  0  0  0  0  0  0  0
    5.4641    0.0000    0.0000 C   0  0  0  0  0  0  0  0  0  0  0  0
    3.7321    0.0000    0.0000 C   0  0  0  0  0  0  0  0  0  0  0  0
    4.5981   -1.5000    0.0000 C   0  0  0  0  0  0  0  0  0  0  0  0
    5.4641   -1.0000    0.0000 C   0  0  0  0  0  0  0  0  0  0  0  0
    3.7321   -1.0000    0.0000 C   0  0  0  0  0  0  0  0  0  0  0  0
    6.3301    2.5000    0.0000 C   0  0  0  0  0  0  0  0  0  0  0  0
    5.4641    4.0000    0.0000 C   0  0  0  0  0  0  0  0  0  0  0  0
    7.1962    4.0000    0.0000 C   0  0  0  0  0  0  0  0  0  0  0  0
    7.1962    3.0000    0.0000 C   0  0  0  0  0  0  0  0  0  0  0  0
    6.3301    4.5000    0.0000 C   0  0  0  0  0  0  0  0  0  0  0  0
    4.5981   -2.5000    0.0000 C   0  0  0  0  0  0  0  0  0  0  0  0
    3.7321   -4.0000    0.0000 C   0  0  0  0  0  0  0  0  0  0  0  0
    8.0622    4.5000    0.0000 C   0  0  0  0  0  0  0  0  0  0  0  0
    2.8660   -4.5000    0.0000 C   0  0  0  0  0  0  0  0  0  0  0  0
    4.0611    2.8100    0.0000 H   0  0  0  0  0  0  0  0  0  0  0  0
    6.0010    0.3100    0.0000 H   0  0  0  0  0  0  0  0  0  0  0  0
    3.1951    0.3100    0.0000 H   0  0  0  0  0  0  0  0  0  0  0  0
    6.0010   -1.3100    0.0000 H   0  0  0  0  0  0  0  0  0  0  0  0
    3.1951   -1.3100    0.0000 H   0  0  0  0  0  0  0  0  0  0  0  0
    6.3301    1.8800    0.0000 H   0  0  0  0  0  0  0  0  0  0  0  0
    4.9272    4.3100    0.0000 H   0  0  0  0  0  0  0  0  0  0  0  0
    7.7331    2.6900    0.0000 H   0  0  0  0  0  0  0  0  0  0  0  0
    6.3301    5.1200    0.0000 H   0  0  0  0  0  0  0  0  0  0  0  0
    3.1951   -2.6900    0.0000 H   0  0  0  0  0  0  0  0  0  0  0  0
    3.9441   -4.5826    0.0000 H   0  0  0  0  0  0  0  0  0  0  0  0
    4.3426   -3.8923    0.0000 H   0  0  0  0  0  0  0  0  0  0  0  0
  1  8  2  0  0  0  0
  1  9  2  0  0  0  0
  1 11  1  0  0  0  0
  1 13  1  0  0  0  0
  2 27  1  0  0  0  0
  3 27  1  0  0  0  0
  4 27  1  0  0  0  0
  5 28  1  0  0  0  0
  6 28  1  0  0  0  0
  7 28  1  0  0  0  0
 10 25  2  0  0  0  0
 11 14  1  0  0  0  0
 11 29  1  0  0  0  0
 12 25  1  0  0  0  0
 12 26  1  0  0  0  0
 12 38  1  0  0  0  0
 13 15  2  0  0  0  0
 13 16  1  0  0  0  0
 14 20  2  0  0  0  0
 14 21  1  0  0  0  0
 15 18  1  0  0  0  0
 15 30  1  0  0  0  0
 16 19  2  0  0  0  0
 16 31  1  0  0  0  0
 17 18  2  0  0  0  0
 17 19  1  0  0  0  0
 17 25  1  0  0  0  0
 18 32  1  0  0  0  0
 19 33  1  0  0  0  0
 20 23  1  0  0  0  0
 20 34  1  0  0  0  0
 21 24  2  0  0  0  0
 21 35  1  0  0  0  0
 22 23  2  0  0  0  0
 22 24  1  0  0  0  0
 22 27  1  0  0  0  0
 23 36  1  0  0  0  0
 24 37  1  0  0  0  0
 26 28  1  0  0  0  0
 26 39  1  0  0  0  0
 26 40  1  0  0  0  0
M  END
> <PUBCHEM_COMPOUND_CID>
31579064

> <PUBCHEM_COMPOUND_CANONICALIZED>
1

> <PUBCHEM_CACTVS_COMPLEXITY>
628

> <PUBCHEM_CACTVS_HBOND_ACCEPTOR>
10

> <PUBCHEM_CACTVS_HBOND_DONOR>
2

> <PUBCHEM_CACTVS_ROTATABLE_BOND>
5

> <PUBCHEM_CACTVS_SUBSKEYS>
AAADccB7McBAAAAAAAAAAAAAAAAAAAAAAAAwYAAAAAAAAAABQAAAHwQQQAAADAjB2BQwwYLAAAKIAiVSUHDCABAkAgAIiJkIZMgIIDKAlZGEIQhglgCIyYcYiACOGAAAAAAAAAAwAAAAAAAAAAAAAAAAAA==

> <PUBCHEM_IUPAC_OPENEYE_NAME>
N-(2,2,2-trifluoroethyl)-4-[[4-(trifluoromethyl)phenyl]sulfamoyl]benzamide

> <PUBCHEM_IUPAC_CAS_NAME>
N-(2,2,2-trifluoroethyl)-4-[[4-(trifluoromethyl)phenyl]sulfamoyl]benzamide

> <PUBCHEM_IUPAC_NAME>
N-(2,2,2-trifluoroethyl)-4-[[4-(trifluoromethyl)phenyl]sulfamoyl]benzamide

> <PUBCHEM_IUPAC_SYSTEMATIC_NAME>
4-[[4-(trifluoromethyl)phenyl]sulfamoyl]-N-[2,2,2-tris(fluoranyl)ethyl]benzamide

> <PUBCHEM_IUPAC_TRADITIONAL_NAME>
N-(2,2,2-trifluoroethyl)-4-[[4-(trifluoromethyl)phenyl]sulfamoyl]benzamide

> <PUBCHEM_IUPAC_INCHI>
InChI=1S/C16H12F6N2O3S/c17-15(18,19)9-23-14(25)10-1-7-13(8-2-10)28(26,27)24-12-5-3-11(4-6-12)16(20,21)22/h1-8,24H,9H2,(H,23,25)

> <PUBCHEM_IUPAC_INCHIKEY>
DVEPWLWNBWXEFW-UHFFFAOYSA-N

> <PUBCHEM_XLOGP3>
3.7

> <PUBCHEM_EXACT_MASS>
426.047283

> <PUBCHEM_MOLECULAR_FORMULA>
C16H12F6N2O3S

> <PUBCHEM_MOLECULAR_WEIGHT>
426.333499

> <PUBCHEM_OPENEYE_CAN_SMILES>
C1=CC(=CC=C1C(=O)NCC(F)(F)F)S(=O)(=O)NC2=CC=C(C=C2)C(F)(F)F

> <PUBCHEM_OPENEYE_ISO_SMILES>
C1=CC(=CC=C1C(=O)NCC(F)(F)F)S(=O)(=O)NC2=CC=C(C=C2)C(F)(F)F

> <PUBCHEM_CACTVS_TPSA>
83.6

> <PUBCHEM_MONOISOTOPIC_WEIGHT>
426.047283

> <PUBCHEM_TOTAL_CHARGE>
0

> <PUBCHEM_HEAVY_ATOM_COUNT>
28

> <PUBCHEM_ATOM_DEF_STEREO_COUNT>
0

> <PUBCHEM_ATOM_UDEF_STEREO_COUNT>
0

> <PUBCHEM_BOND_DEF_STEREO_COUNT>
0

> <PUBCHEM_BOND_UDEF_STEREO_COUNT>
0

> <PUBCHEM_ISOTOPIC_ATOM_COUNT>
0

> <PUBCHEM_COMPONENT_COUNT>
1

> <PUBCHEM_CACTVS_TAUTO_COUNT>
2

> <PUBCHEM_COORDINATE_TYPE>
1
5
255

> <PUBCHEM_BONDANNOTATIONS>
13  15  8
13  16  8
14  20  8
14  21  8
15  18  8
16  19  8
17  18  8
17  19  8
20  23  8
21  24  8
22  23  8
22  24  8

$$$$
31592078
  -OEChem-03221309322D

 58 61  0     0  0  0  0  0  0999 V2000
    7.9245   -1.5041    0.0000 O   0  0  0  0  0  0  0  0  0  0  0  0
   10.7669    4.4052    0.0000 N   0  3  0  0  0  0  0  0  0  0  0  0
    7.5673    0.1907    0.0000 N   0  0  0  0  0  0  0  0  0  0  0  0
    4.6783   -4.6828    0.0000 N   0  0  0  0  0  0  0  0  0  0  0  0
   10.9731    3.4267    0.0000 C   0  0  0  0  0  0  0  0  0  0  0  0
   11.6338    4.9037    0.0000 C   0  0  0  0  0  0  0  0  0  0  0  0
   11.9675    3.3205    0.0000 C   0  0  0  0  0  0  0  0  0  0  0  0
   12.3758    4.2333    0.0000 C   0  0  0  0  0  0  0  0  0  0  0  0
    9.7884    4.1990    0.0000 C   0  0  0  0  0  0  0  0  0  0  0  0
    9.4778    3.2485    0.0000 C   0  0  0  0  0  0  0  0  0  0  0  0
   10.1456    2.5042    0.0000 C   0  0  0  0  0  0  0  0  0  0  0  0
    8.4993    3.0423    0.0000 C   0  0  0  0  0  0  0  0  0  0  0  0
    9.8349    1.5537    0.0000 C   0  0  0  0  0  0  0  0  0  0  0  0
    8.1886    2.0917    0.0000 C   0  0  0  0  0  0  0  0  0  0  0  0
    8.8564    1.3474    0.0000 C   0  0  0  0  0  0  0  0  0  0  0  0
    8.5458    0.3969    0.0000 C   0  0  0  0  0  0  0  0  0  0  0  0
    4.9889   -2.1228    0.0000 C   0  0  0  0  0  0  0  0  0  0  0  0
    5.9674   -1.9166    0.0000 C   0  0  0  0  0  0  0  0  0  0  0  0
    4.6783   -3.0733    0.0000 C   0  0  0  0  0  0  0  0  0  0  0  0
    6.2781   -0.9661    0.0000 C   0  0  0  0  0  0  0  0  0  0  0  0
    3.7321   -3.3780    0.0000 C   0  0  0  0  0  0  0  0  0  0  0  0
    3.7321   -4.3780    0.0000 C   0  0  0  0  0  0  0  0  0  0  0  0
    7.2566   -0.7598    0.0000 C   0  0  0  0  0  0  0  0  0  0  0  0
    5.2619   -3.8780    0.0000 C   0  0  0  0  0  0  0  0  0  0  0  0
    2.8660   -2.8780    0.0000 C   0  0  0  0  0  0  0  0  0  0  0  0
    2.8660   -4.8780    0.0000 C   0  0  0  0  0  0  0  0  0  0  0  0
    2.0000   -3.3780    0.0000 C   0  0  0  0  0  0  0  0  0  0  0  0
    2.0000   -4.3780    0.0000 C   0  0  0  0  0  0  0  0  0  0  0  0
   10.2684    5.2721    0.0000 H   0  0  0  0  0  0  0  0  0  0  0  0
   10.3564    3.3630    0.0000 H   0  0  0  0  0  0  0  0  0  0  0  0
   10.9721    2.8067    0.0000 H   0  0  0  0  0  0  0  0  0  0  0  0
   12.0953    5.3178    0.0000 H   0  0  0  0  0  0  0  0  0  0  0  0
   11.2703    5.4059    0.0000 H   0  0  0  0  0  0  0  0  0  0  0  0
   11.8375    2.7142    0.0000 H   0  0  0  0  0  0  0  0  0  0  0  0
   12.5568    3.1278    0.0000 H   0  0  0  0  0  0  0  0  0  0  0  0
   12.9122    3.9224    0.0000 H   0  0  0  0  0  0  0  0  0  0  0  0
   12.7411    4.7343    0.0000 H   0  0  0  0  0  0  0  0  0  0  0  0
    9.7679    4.8187    0.0000 H   0  0  0  0  0  0  0  0  0  0  0  0
    9.1746    4.2863    0.0000 H   0  0  0  0  0  0  0  0  0  0  0  0
   10.7523    2.6320    0.0000 H   0  0  0  0  0  0  0  0  0  0  0  0
    8.0852    3.5037    0.0000 H   0  0  0  0  0  0  0  0  0  0  0  0
   10.2490    1.0922    0.0000 H   0  0  0  0  0  0  0  0  0  0  0  0
    7.5819    1.9639    0.0000 H   0  0  0  0  0  0  0  0  0  0  0  0
    8.5663   -0.2228    0.0000 H   0  0  0  0  0  0  0  0  0  0  0  0
    9.1596    0.3096    0.0000 H   0  0  0  0  0  0  0  0  0  0  0  0
    4.9684   -1.5031    0.0000 H   0  0  0  0  0  0  0  0  0  0  0  0
    4.3751   -2.0354    0.0000 H   0  0  0  0  0  0  0  0  0  0  0  0
    5.9880   -2.5362    0.0000 H   0  0  0  0  0  0  0  0  0  0  0  0
    6.5813   -2.0039    0.0000 H   0  0  0  0  0  0  0  0  0  0  0  0
    6.2575   -0.3464    0.0000 H   0  0  0  0  0  0  0  0  0  0  0  0
    5.6643   -0.8787    0.0000 H   0  0  0  0  0  0  0  0  0  0  0  0
    7.1532    0.6522    0.0000 H   0  0  0  0  0  0  0  0  0  0  0  0
    5.8819   -3.8780    0.0000 H   0  0  0  0  0  0  0  0  0  0  0  0
    4.8709   -5.2721    0.0000 H   0  0  0  0  0  0  0  0  0  0  0  0
    2.8660   -2.2580    0.0000 H   0  0  0  0  0  0  0  0  0  0  0  0
    2.8660   -5.4980    0.0000 H   0  0  0  0  0  0  0  0  0  0  0  0
    1.4631   -3.0680    0.0000 H   0  0  0  0  0  0  0  0  0  0  0  0
    1.4631   -4.6880    0.0000 H   0  0  0  0  0  0  0  0  0  0  0  0
  1 23  2  0  0  0  0
  2  5  1  0  0  0  0
  2  6  1  0  0  0  0
  2  9  1  0  0  0  0
  2 29  1  0  0  0  0
  3 16  1  0  0  0  0
  3 23  1  0  0  0  0
  3 52  1  0  0  0  0
  4 22  1  0  0  0  0
  4 24  1  0  0  0  0
  4 54  1  0  0  0  0
  5  7  1  0  0  0  0
  5 30  1  0  0  0  0
  5 31  1  0  0  0  0
  6  8  1  0  0  0  0
  6 32  1  0  0  0  0
  6 33  1  0  0  0  0
  7  8  1  0  0  0  0
  7 34  1  0  0  0  0
  7 35  1  0  0  0  0
  8 36  1  0  0  0  0
  8 37  1  0  0  0  0
  9 10  1  0  0  0  0
  9 38  1  0  0  0  0
  9 39  1  0  0  0  0
 10 11  2  0  0  0  0
 10 12  1  0  0  0  0
 11 13  1  0  0  0  0
 11 40  1  0  0  0  0
 12 14  2  0  0  0  0
 12 41  1  0  0  0  0
 13 15  2  0  0  0  0
 13 42  1  0  0  0  0
 14 15  1  0  0  0  0
 14 43  1  0  0  0  0
 15 16  1  0  0  0  0
 16 44  1  0  0  0  0
 16 45  1  0  0  0  0
 17 18  1  0  0  0  0
 17 19  1  0  0  0  0
 17 46  1  0  0  0  0
 17 47  1  0  0  0  0
 18 20  1  0  0  0  0
 18 48  1  0  0  0  0
 18 49  1  0  0  0  0
 19 21  1  0  0  0  0
 19 24  2  0  0  0  0
 20 23  1  0  0  0  0
 20 50  1  0  0  0  0
 20 51  1  0  0  0  0
 21 22  1  0  0  0  0
 21 25  2  0  0  0  0
 22 26  2  0  0  0  0
 24 53  1  0  0  0  0
 25 27  1  0  0  0  0
 25 55  1  0  0  0  0
 26 28  1  0  0  0  0
 26 56  1  0  0  0  0
 27 28  2  0  0  0  0
 27 57  1  0  0  0  0
 28 58  1  0  0  0  0
M  CHG  1   2   1
M  END
> <PUBCHEM_COMPOUND_CID>
31592078

> <PUBCHEM_COMPOUND_CANONICALIZED>
1

> <PUBCHEM_CACTVS_COMPLEXITY>
482

> <PUBCHEM_CACTVS_HBOND_ACCEPTOR>
1

> <PUBCHEM_CACTVS_HBOND_DONOR>
3

> <PUBCHEM_CACTVS_ROTATABLE_BOND>
8

> <PUBCHEM_CACTVS_SUBSKEYS>
AAADceB7IAAAAAAAAAAAAAAAAAAAAWLAAAAwYAAAAAAAAFgB9AAAHgAQAAAADAjBngQ8wPPJkACoAzV3VACCgCAxAiAI2aE4ZJgIIPLAkZGEIAhglgDIyAcYiMCOwAAAAAACAACAAAAAAAQAAAAAAAAAAA==

> <PUBCHEM_IUPAC_OPENEYE_NAME>
4-(1H-indol-3-yl)-N-[[4-(pyrrolidin-1-ium-1-ylmethyl)phenyl]methyl]butanamide

> <PUBCHEM_IUPAC_CAS_NAME>
4-(1H-indol-3-yl)-N-[[4-(1-pyrrolidin-1-iumylmethyl)phenyl]methyl]butanamide

> <PUBCHEM_IUPAC_NAME>
4-(1H-indol-3-yl)-N-[[4-(pyrrolidin-1-ium-1-ylmethyl)phenyl]methyl]butanamide

> <PUBCHEM_IUPAC_SYSTEMATIC_NAME>
4-(1H-indol-3-yl)-N-[[4-(pyrrolidin-1-ium-1-ylmethyl)phenyl]methyl]butanamide

> <PUBCHEM_IUPAC_TRADITIONAL_NAME>
4-(1H-indol-3-yl)-N-[4-(pyrrolidin-1-ium-1-ylmethyl)benzyl]butyramide

> <PUBCHEM_IUPAC_INCHI>
InChI=1S/C24H29N3O/c28-24(9-5-6-21-17-25-23-8-2-1-7-22(21)23)26-16-19-10-12-20(13-11-19)18-27-14-3-4-15-27/h1-2,7-8,10-13,17,25H,3-6,9,14-16,18H2,(H,26,28)/p+1

> <PUBCHEM_IUPAC_INCHIKEY>
UKYQRMKTTGUBJQ-UHFFFAOYSA-O

> <PUBCHEM_XLOGP3>
3.9

> <PUBCHEM_EXACT_MASS>
376.238888

> <PUBCHEM_MOLECULAR_FORMULA>
C24H30N3O+

> <PUBCHEM_MOLECULAR_WEIGHT>
376.5145

> <PUBCHEM_OPENEYE_CAN_SMILES>
C1CC[NH+](C1)CC2=CC=C(C=C2)CNC(=O)CCCC3=CNC4=CC=CC=C43

> <PUBCHEM_OPENEYE_ISO_SMILES>
C1CC[NH+](C1)CC2=CC=C(C=C2)CNC(=O)CCCC3=CNC4=CC=CC=C43

> <PUBCHEM_CACTVS_TPSA>
49.3

> <PUBCHEM_MONOISOTOPIC_WEIGHT>
376.238888

> <PUBCHEM_TOTAL_CHARGE>
1

> <PUBCHEM_HEAVY_ATOM_COUNT>
28

> <PUBCHEM_ATOM_DEF_STEREO_COUNT>
0

> <PUBCHEM_ATOM_UDEF_STEREO_COUNT>
0

> <PUBCHEM_BOND_DEF_STEREO_COUNT>
0

> <PUBCHEM_BOND_UDEF_STEREO_COUNT>
0

> <PUBCHEM_ISOTOPIC_ATOM_COUNT>
0

> <PUBCHEM_COMPONENT_COUNT>
1

> <PUBCHEM_CACTVS_TAUTO_COUNT>
2

> <PUBCHEM_COORDINATE_TYPE>
1
5
255

> <PUBCHEM_BONDANNOTATIONS>
10  11  8
10  12  8
11  13  8
12  14  8
13  15  8
14  15  8
19  21  8
19  24  8
21  22  8
21  25  8
22  26  8
25  27  8
26  28  8
27  28  8
4  22  8
4  24  8

$$$$
