27475122
  -OEChem-06121221202D

 34 34  0     0  0  0  0  0  0999 V2000
    2.0000   -1.2500    0.0000 Br  0  0  0  0  0  0  0  0  0  0  0  0
    5.4641   -0.2500    0.0000 O   0  0  0  0  0  0  0  0  0  0  0  0
    5.4641    1.7500    0.0000 N   0  3  0  0  0  0  0  0  0  0  0  0
    3.7320   -0.2500    0.0000 N   0  0  0  0  0  0  0  0  0  0  0  0
    6.3301    2.2500    0.0000 C   0  0  0  0  0  0  0  0  0  0  0  0
    4.9641    2.6160    0.0000 C   0  0  0  0  0  0  0  0  0  0  0  0
    4.5981    1.2500    0.0000 C   0  0  0  0  0  0  0  0  0  0  0  0
    6.3301    3.2500    0.0000 C   0  0  0  0  0  0  0  0  0  0  0  0
    3.9641    2.6160    0.0000 C   0  0  0  0  0  0  0  0  0  0  0  0
    4.5981    0.2500    0.0000 C   0  0  0  0  0  0  0  0  0  0  0  0
    3.7320   -1.2500    0.0000 C   0  0  0  0  0  0  0  0  0  0  0  0
    2.8660   -1.7500    0.0000 C   0  0  0  0  0  0  0  0  0  0  0  0
    4.5981   -1.7500    0.0000 C   0  0  0  0  0  0  0  0  0  0  0  0
    2.8660   -2.7500    0.0000 C   0  0  0  0  0  0  0  0  0  0  0  0
    4.5981   -2.7500    0.0000 C   0  0  0  0  0  0  0  0  0  0  0  0
    3.7320   -3.2500    0.0000 C   0  0  0  0  0  0  0  0  0  0  0  0
    5.7741    1.2131    0.0000 H   0  0  0  0  0  0  0  0  0  0  0  0
    6.5422    1.6674    0.0000 H   0  0  0  0  0  0  0  0  0  0  0  0
    6.9407    2.3577    0.0000 H   0  0  0  0  0  0  0  0  0  0  0  0
    5.5467    2.8281    0.0000 H   0  0  0  0  0  0  0  0  0  0  0  0
    4.8564    3.2266    0.0000 H   0  0  0  0  0  0  0  0  0  0  0  0
    4.3860    1.8326    0.0000 H   0  0  0  0  0  0  0  0  0  0  0  0
    3.9875    1.1423    0.0000 H   0  0  0  0  0  0  0  0  0  0  0  0
    3.9641    3.2360    0.0000 H   0  0  0  0  0  0  0  0  0  0  0  0
    6.9501    3.2500    0.0000 H   0  0  0  0  0  0  0  0  0  0  0  0
    6.3301    3.8700    0.0000 H   0  0  0  0  0  0  0  0  0  0  0  0
    5.7101    3.2500    0.0000 H   0  0  0  0  0  0  0  0  0  0  0  0
    3.3441    2.6160    0.0000 H   0  0  0  0  0  0  0  0  0  0  0  0
    3.9641    1.9960    0.0000 H   0  0  0  0  0  0  0  0  0  0  0  0
    3.1951    0.0600    0.0000 H   0  0  0  0  0  0  0  0  0  0  0  0
    5.1350   -1.4400    0.0000 H   0  0  0  0  0  0  0  0  0  0  0  0
    2.3291   -3.0600    0.0000 H   0  0  0  0  0  0  0  0  0  0  0  0
    5.1350   -3.0600    0.0000 H   0  0  0  0  0  0  0  0  0  0  0  0
    3.7320   -3.8700    0.0000 H   0  0  0  0  0  0  0  0  0  0  0  0
  1 12  1  0  0  0  0
  2 10  2  0  0  0  0
  3  5  1  0  0  0  0
  3  6  1  0  0  0  0
  3  7  1  0  0  0  0
  3 17  1  0  0  0  0
  4 10  1  0  0  0  0
  4 11  1  0  0  0  0
  4 30  1  0  0  0  0
  5  8  1  0  0  0  0
  5 18  1  0  0  0  0
  5 19  1  0  0  0  0
  6  9  1  0  0  0  0
  6 20  1  0  0  0  0
  6 21  1  0  0  0  0
  7 10  1  0  0  0  0
  7 22  1  0  0  0  0
  7 23  1  0  0  0  0
  8 25  1  0  0  0  0
  8 26  1  0  0  0  0
  8 27  1  0  0  0  0
  9 24  1  0  0  0  0
  9 28  1  0  0  0  0
  9 29  1  0  0  0  0
 11 12  1  0  0  0  0
 11 13  2  0  0  0  0
 12 14  2  0  0  0  0
 13 15  1  0  0  0  0
 13 31  1  0  0  0  0
 14 16  1  0  0  0  0
 14 32  1  0  0  0  0
 15 16  2  0  0  0  0
 15 33  1  0  0  0  0
 16 34  1  0  0  0  0
M  CHG  1   3   1
M  END
> <PUBCHEM_COMPOUND_CID>
27475122

> <PUBCHEM_COMPOUND_CANONICALIZED>
1

> <PUBCHEM_CACTVS_COMPLEXITY>
219

> <PUBCHEM_CACTVS_HBOND_ACCEPTOR>
1

> <PUBCHEM_CACTVS_HBOND_DONOR>
2

> <PUBCHEM_CACTVS_ROTATABLE_BOND>
5

> <PUBCHEM_CACTVS_SUBSKEYS>
AAADceBzIAAAEAAAAAAAAAAAAAAAAAAAAAAwAAAAAAAAAAABAAAAHgBQAAABqAjBkAQywIPAAACIACVSUACCAAAhAgQIiICIZKgIYCLAkbGUIAhglADIyhcQAAAAAAAAAAAAAAgAAAAAAAAAEAAAAAAAAA==

> <PUBCHEM_IUPAC_OPENEYE_NAME>
[2-(2-bromoanilino)-2-oxo-ethyl]-diethyl-ammonium

> <PUBCHEM_IUPAC_CAS_NAME>
[2-(2-bromoanilino)-2-oxoethyl]-diethylammonium

> <PUBCHEM_IUPAC_NAME>
[2-(2-bromoanilino)-2-oxoethyl]-diethylazanium

> <PUBCHEM_IUPAC_SYSTEMATIC_NAME>
[2-[(2-bromophenyl)amino]-2-oxidanylidene-ethyl]-diethyl-azanium

> <PUBCHEM_IUPAC_TRADITIONAL_NAME>
[2-(2-bromoanilino)-2-keto-ethyl]-diethyl-ammonium

> <PUBCHEM_IUPAC_INCHI>
InChI=1S/C12H17BrN2O/c1-3-15(4-2)9-12(16)14-11-8-6-5-7-10(11)13/h5-8H,3-4,9H2,1-2H3,(H,14,16)/p+1

> <PUBCHEM_IUPAC_INCHIKEY>
VVXYXSNTADFJJY-UHFFFAOYSA-O

> <PUBCHEM_XLOGP3>
2.2

> <PUBCHEM_EXACT_MASS>
285.06025

> <PUBCHEM_MOLECULAR_FORMULA>
C12H18BrN2O+

> <PUBCHEM_MOLECULAR_WEIGHT>
286.18812

> <PUBCHEM_OPENEYE_CAN_SMILES>
CC[NH+](CC)CC(=O)NC1=CC=CC=C1Br

> <PUBCHEM_OPENEYE_ISO_SMILES>
CC[NH+](CC)CC(=O)NC1=CC=CC=C1Br

> <PUBCHEM_CACTVS_TPSA>
33.5

> <PUBCHEM_MONOISOTOPIC_WEIGHT>
285.06025

> <PUBCHEM_TOTAL_CHARGE>
1

> <PUBCHEM_HEAVY_ATOM_COUNT>
16

> <PUBCHEM_ATOM_DEF_STEREO_COUNT>
0

> <PUBCHEM_ATOM_UDEF_STEREO_COUNT>
0

> <PUBCHEM_BOND_DEF_STEREO_COUNT>
0

> <PUBCHEM_BOND_UDEF_STEREO_COUNT>
0

> <PUBCHEM_ISOTOPIC_ATOM_COUNT>
0

> <PUBCHEM_COMPONENT_COUNT>
1

> <PUBCHEM_CACTVS_TAUTO_COUNT>
3

> <PUBCHEM_COORDINATE_TYPE>
1
5
255

> <PUBCHEM_BONDANNOTATIONS>
11  12  8
11  13  8
12  14  8
13  15  8
14  16  8
15  16  8

$$$$
27485440
  -OEChem-06121221202D

 43 44  0     0  0  0  0  0  0999 V2000
    7.8301    1.6830    0.0000 Cl  0  0  0  0  0  0  0  0  0  0  0  0
    5.2320    0.1830    0.0000 O   0  0  0  0  0  0  0  0  0  0  0  0
    3.5000   -2.8170    0.0000 N   0  3  0  0  0  0  0  0  0  0  0  0
    3.5000    0.1830    0.0000 N   0  0  0  0  0  0  0  0  0  0  0  0
    4.3660    1.6830    0.0000 N   0  0  0  0  0  0  0  0  0  0  0  0
    3.5000   -0.8170    0.0000 C   0  0  0  0  0  0  0  0  0  0  0  0
    2.6340   -2.3170    0.0000 C   0  0  0  0  0  0  0  0  0  0  0  0
    4.3660   -2.3170    0.0000 C   0  0  0  0  0  0  0  0  0  0  0  0
    2.6340   -1.3170    0.0000 C   0  0  0  0  0  0  0  0  0  0  0  0
    4.3660   -1.3170    0.0000 C   0  0  0  0  0  0  0  0  0  0  0  0
    3.0000   -3.6830    0.0000 C   0  0  0  0  0  0  0  0  0  0  0  0
    2.0000   -3.6830    0.0000 C   0  0  0  0  0  0  0  0  0  0  0  0
    4.3660    0.6830    0.0000 C   0  0  0  0  0  0  0  0  0  0  0  0
    5.2320    2.1830    0.0000 C   0  0  0  0  0  0  0  0  0  0  0  0
    6.0981    1.6830    0.0000 C   0  0  0  0  0  0  0  0  0  0  0  0
    5.2320    3.1830    0.0000 C   0  0  0  0  0  0  0  0  0  0  0  0
    6.9641    3.1830    0.0000 C   0  0  0  0  0  0  0  0  0  0  0  0
    6.9641    2.1830    0.0000 C   0  0  0  0  0  0  0  0  0  0  0  0
    6.0981    3.6830    0.0000 C   0  0  0  0  0  0  0  0  0  0  0  0
    7.8301    3.6830    0.0000 C   0  0  0  0  0  0  0  0  0  0  0  0
    3.8100   -3.3539    0.0000 H   0  0  0  0  0  0  0  0  0  0  0  0
    4.0369   -0.5070    0.0000 H   0  0  0  0  0  0  0  0  0  0  0  0
    4.5781   -2.8996    0.0000 H   0  0  0  0  0  0  0  0  0  0  0  0
    4.9766   -2.2093    0.0000 H   0  0  0  0  0  0  0  0  0  0  0  0
    2.0234   -2.2093    0.0000 H   0  0  0  0  0  0  0  0  0  0  0  0
    2.4219   -2.8996    0.0000 H   0  0  0  0  0  0  0  0  0  0  0  0
    4.9766   -1.4246    0.0000 H   0  0  0  0  0  0  0  0  0  0  0  0
    4.5781   -0.7344    0.0000 H   0  0  0  0  0  0  0  0  0  0  0  0
    2.4219   -0.7344    0.0000 H   0  0  0  0  0  0  0  0  0  0  0  0
    2.0234   -1.4246    0.0000 H   0  0  0  0  0  0  0  0  0  0  0  0
    2.8923   -4.2936    0.0000 H   0  0  0  0  0  0  0  0  0  0  0  0
    3.5826   -3.8951    0.0000 H   0  0  0  0  0  0  0  0  0  0  0  0
    2.9631    0.4930    0.0000 H   0  0  0  0  0  0  0  0  0  0  0  0
    2.0000   -3.0630    0.0000 H   0  0  0  0  0  0  0  0  0  0  0  0
    1.3800   -3.6830    0.0000 H   0  0  0  0  0  0  0  0  0  0  0  0
    2.0000   -4.3030    0.0000 H   0  0  0  0  0  0  0  0  0  0  0  0
    3.8291    1.9930    0.0000 H   0  0  0  0  0  0  0  0  0  0  0  0
    6.0981    1.0630    0.0000 H   0  0  0  0  0  0  0  0  0  0  0  0
    4.6951    3.4930    0.0000 H   0  0  0  0  0  0  0  0  0  0  0  0
    6.0981    4.3030    0.0000 H   0  0  0  0  0  0  0  0  0  0  0  0
    8.1401    3.1461    0.0000 H   0  0  0  0  0  0  0  0  0  0  0  0
    8.3671    3.9930    0.0000 H   0  0  0  0  0  0  0  0  0  0  0  0
    7.5201    4.2200    0.0000 H   0  0  0  0  0  0  0  0  0  0  0  0
  1 18  1  0  0  0  0
  2 13  2  0  0  0  0
  3  7  1  0  0  0  0
  3  8  1  0  0  0  0
  3 11  1  0  0  0  0
  3 21  1  0  0  0  0
  4  6  1  0  0  0  0
  4 13  1  0  0  0  0
  4 33  1  0  0  0  0
  5 13  1  0  0  0  0
  5 14  1  0  0  0  0
  5 37  1  0  0  0  0
  6  9  1  0  0  0  0
  6 10  1  0  0  0  0
  6 22  1  0  0  0  0
  7  9  1  0  0  0  0
  7 25  1  0  0  0  0
  7 26  1  0  0  0  0
  8 10  1  0  0  0  0
  8 23  1  0  0  0  0
  8 24  1  0  0  0  0
  9 29  1  0  0  0  0
  9 30  1  0  0  0  0
 10 27  1  0  0  0  0
 10 28  1  0  0  0  0
 11 12  1  0  0  0  0
 11 31  1  0  0  0  0
 11 32  1  0  0  0  0
 12 34  1  0  0  0  0
 12 35  1  0  0  0  0
 12 36  1  0  0  0  0
 14 15  2  0  0  0  0
 14 16  1  0  0  0  0
 15 18  1  0  0  0  0
 15 38  1  0  0  0  0
 16 19  2  0  0  0  0
 16 39  1  0  0  0  0
 17 18  2  0  0  0  0
 17 19  1  0  0  0  0
 17 20  1  0  0  0  0
 19 40  1  0  0  0  0
 20 41  1  0  0  0  0
 20 42  1  0  0  0  0
 20 43  1  0  0  0  0
M  CHG  1   3   1
M  END
> <PUBCHEM_COMPOUND_CID>
27485440

> <PUBCHEM_COMPOUND_CANONICALIZED>
1

> <PUBCHEM_CACTVS_COMPLEXITY>
318

> <PUBCHEM_CACTVS_HBOND_ACCEPTOR>
1

> <PUBCHEM_CACTVS_HBOND_DONOR>
3

> <PUBCHEM_CACTVS_ROTATABLE_BOND>
3

> <PUBCHEM_CACTVS_SUBSKEYS>
AAADceBzIAAEAAAAAAAAAAAAAAAAAAAAAAA8QAAAAAAAAAABAAAAHgIQAAAADCrBGCQzwIPAAACIAiRCUACCAAAhBwAIiIAIZoiIICLB05GEIAholgLIyCcQgAAOCAAAAAIBAAAQAAAABAIAAAAAAAAAAA==

> <PUBCHEM_IUPAC_OPENEYE_NAME>
1-(3-chloro-4-methyl-phenyl)-3-(1-ethylpiperidin-1-ium-4-yl)urea

> <PUBCHEM_IUPAC_CAS_NAME>
1-(3-chloro-4-methylphenyl)-3-(1-ethyl-4-piperidin-1-iumyl)urea

> <PUBCHEM_IUPAC_NAME>
1-(3-chloro-4-methylphenyl)-3-(1-ethylpiperidin-1-ium-4-yl)urea

> <PUBCHEM_IUPAC_SYSTEMATIC_NAME>
1-(3-chloranyl-4-methyl-phenyl)-3-(1-ethylpiperidin-1-ium-4-yl)urea

> <PUBCHEM_IUPAC_TRADITIONAL_NAME>
1-(3-chloro-4-methyl-phenyl)-3-(1-ethylpiperidin-1-ium-4-yl)urea

> <PUBCHEM_IUPAC_INCHI>
InChI=1S/C15H22ClN3O/c1-3-19-8-6-12(7-9-19)17-15(20)18-13-5-4-11(2)14(16)10-13/h4-5,10,12H,3,6-9H2,1-2H3,(H2,17,18,20)/p+1

> <PUBCHEM_IUPAC_INCHIKEY>
ATIPBEDTLDFXQF-UHFFFAOYSA-O

> <PUBCHEM_XLOGP3>
3.6

> <PUBCHEM_EXACT_MASS>
296.152965

> <PUBCHEM_MOLECULAR_FORMULA>
C15H23ClN3O+

> <PUBCHEM_MOLECULAR_WEIGHT>
296.81562

> <PUBCHEM_OPENEYE_CAN_SMILES>
CC[NH+]1CCC(CC1)NC(=O)NC2=CC(=C(C=C2)C)Cl

> <PUBCHEM_OPENEYE_ISO_SMILES>
CC[NH+]1CCC(CC1)NC(=O)NC2=CC(=C(C=C2)C)Cl

> <PUBCHEM_CACTVS_TPSA>
45.6

> <PUBCHEM_MONOISOTOPIC_WEIGHT>
296.152965

> <PUBCHEM_TOTAL_CHARGE>
1

> <PUBCHEM_HEAVY_ATOM_COUNT>
20

> <PUBCHEM_ATOM_DEF_STEREO_COUNT>
0

> <PUBCHEM_ATOM_UDEF_STEREO_COUNT>
0

> <PUBCHEM_BOND_DEF_STEREO_COUNT>
0

> <PUBCHEM_BOND_UDEF_STEREO_COUNT>
0

> <PUBCHEM_ISOTOPIC_ATOM_COUNT>
0

> <PUBCHEM_COMPONENT_COUNT>
1

> <PUBCHEM_CACTVS_TAUTO_COUNT>
3

> <PUBCHEM_COORDINATE_TYPE>
1
5
255

> <PUBCHEM_BONDANNOTATIONS>
14  15  8
14  16  8
15  18  8
16  19  8
17  18  8
17  19  8

$$$$
