27568246
  -OEChem-12041211342D

 66 67  0     1  0  0  0  0  0999 V2000
    6.3301   -0.7500    0.0000 O   0  0  0  0  0  0  0  0  0  0  0  0
    6.3301    2.2500    0.0000 O   0  0  0  0  0  0  0  0  0  0  0  0
    8.0622    1.2500    0.0000 O   0  0  0  0  0  0  0  0  0  0  0  0
    4.5981    1.2500    0.0000 O   0  0  0  0  0  0  0  0  0  0  0  0
    4.5981   -0.7500    0.0000 O   0  0  0  0  0  0  0  0  0  0  0  0
    8.0622   -1.7500    0.0000 O   0  0  0  0  0  0  0  0  0  0  0  0
    8.0622    2.2500    0.0000 O   0  0  0  0  0  0  0  0  0  0  0  0
    8.9282   -0.2500    0.0000 O   0  0  0  0  0  0  0  0  0  0  0  0
    3.7320   -0.2500    0.0000 O   0  0  0  0  0  0  0  0  0  0  0  0
    9.7942   -1.7500    0.0000 O   0  0  0  0  0  0  0  0  0  0  0  0
    6.3301    1.2500    0.0000 C   0  0  2  0  0  0  0  0  0  0  0  0
    7.1962    0.7500    0.0000 C   0  0  1  0  0  0  0  0  0  0  0  0
    5.4641    0.7500    0.0000 C   0  0  1  0  0  0  0  0  0  0  0  0
    7.1962   -0.2500    0.0000 C   0  0  1  0  0  0  0  0  0  0  0  0
    5.4641   -0.2500    0.0000 C   0  0  1  0  0  0  0  0  0  0  0  0
    8.0622   -0.7500    0.0000 C   0  0  0  0  0  0  0  0  0  0  0  0
    4.5981   -1.7500    0.0000 C   0  0  0  0  0  0  0  0  0  0  0  0
    3.7320   -2.2500    0.0000 C   0  0  0  0  0  0  0  0  0  0  0  0
    7.1962    2.7500    0.0000 C   0  0  0  0  0  0  0  0  0  0  0  0
    8.9282    0.7500    0.0000 C   0  0  0  0  0  0  0  0  0  0  0  0
    3.7320    0.7500    0.0000 C   0  0  0  0  0  0  0  0  0  0  0  0
    2.8660   -1.7500    0.0000 C   0  0  0  0  0  0  0  0  0  0  0  0
    5.4641   -2.2500    0.0000 C   0  0  0  0  0  0  0  0  0  0  0  0
    3.7320   -3.2500    0.0000 C   0  0  0  0  0  0  0  0  0  0  0  0
    5.4641   -3.2500    0.0000 C   0  0  0  0  0  0  0  0  0  0  0  0
    7.1962    3.7500    0.0000 C   0  0  0  0  0  0  0  0  0  0  0  0
    9.7942    1.2500    0.0000 C   0  0  0  0  0  0  0  0  0  0  0  0
    8.9282   -2.2500    0.0000 C   0  0  0  0  0  0  0  0  0  0  0  0
    2.8660    1.2500    0.0000 C   0  0  0  0  0  0  0  0  0  0  0  0
    2.0000   -2.2500    0.0000 C   0  0  0  0  0  0  0  0  0  0  0  0
    2.8660   -0.7500    0.0000 C   0  0  0  0  0  0  0  0  0  0  0  0
    4.5981   -3.7500    0.0000 C   0  0  0  0  0  0  0  0  0  0  0  0
    6.3301   -3.7500    0.0000 C   0  0  0  0  0  0  0  0  0  0  0  0
    8.9282   -3.2500    0.0000 C   0  0  0  0  0  0  0  0  0  0  0  0
    6.8671    1.5600    0.0000 H   0  0  0  0  0  0  0  0  0  0  0  0
    7.7331    0.4400    0.0000 H   0  0  0  0  0  0  0  0  0  0  0  0
    5.4641    1.3700    0.0000 H   0  0  0  0  0  0  0  0  0  0  0  0
    7.1962   -0.8700    0.0000 H   0  0  0  0  0  0  0  0  0  0  0  0
    5.4641   -0.8700    0.0000 H   0  0  0  0  0  0  0  0  0  0  0  0
    8.6728   -0.8577    0.0000 H   0  0  0  0  0  0  0  0  0  0  0  0
    8.2742   -0.1674    0.0000 H   0  0  0  0  0  0  0  0  0  0  0  0
    2.8660   -2.3700    0.0000 H   0  0  0  0  0  0  0  0  0  0  0  0
    6.0010   -1.9400    0.0000 H   0  0  0  0  0  0  0  0  0  0  0  0
    3.1951   -3.5600    0.0000 H   0  0  0  0  0  0  0  0  0  0  0  0
    7.8162    3.7500    0.0000 H   0  0  0  0  0  0  0  0  0  0  0  0
    7.1962    4.3700    0.0000 H   0  0  0  0  0  0  0  0  0  0  0  0
    6.5762    3.7500    0.0000 H   0  0  0  0  0  0  0  0  0  0  0  0
   10.1042    0.7131    0.0000 H   0  0  0  0  0  0  0  0  0  0  0  0
   10.3312    1.5600    0.0000 H   0  0  0  0  0  0  0  0  0  0  0  0
    9.4842    1.7869    0.0000 H   0  0  0  0  0  0  0  0  0  0  0  0
    3.1760    1.7869    0.0000 H   0  0  0  0  0  0  0  0  0  0  0  0
    2.3291    1.5600    0.0000 H   0  0  0  0  0  0  0  0  0  0  0  0
    2.5560    0.7131    0.0000 H   0  0  0  0  0  0  0  0  0  0  0  0
    3.4860   -0.7500    0.0000 H   0  0  0  0  0  0  0  0  0  0  0  0
    2.8660   -0.1300    0.0000 H   0  0  0  0  0  0  0  0  0  0  0  0
    2.2460   -0.7500    0.0000 H   0  0  0  0  0  0  0  0  0  0  0  0
    1.6900   -1.7131    0.0000 H   0  0  0  0  0  0  0  0  0  0  0  0
    1.4631   -2.5600    0.0000 H   0  0  0  0  0  0  0  0  0  0  0  0
    2.3100   -2.7869    0.0000 H   0  0  0  0  0  0  0  0  0  0  0  0
    4.5981   -4.3700    0.0000 H   0  0  0  0  0  0  0  0  0  0  0  0
    6.0201   -4.2869    0.0000 H   0  0  0  0  0  0  0  0  0  0  0  0
    6.8671   -4.0600    0.0000 H   0  0  0  0  0  0  0  0  0  0  0  0
    6.6401   -3.2131    0.0000 H   0  0  0  0  0  0  0  0  0  0  0  0
    8.3082   -3.2500    0.0000 H   0  0  0  0  0  0  0  0  0  0  0  0
    8.9282   -3.8700    0.0000 H   0  0  0  0  0  0  0  0  0  0  0  0
    9.5482   -3.2500    0.0000 H   0  0  0  0  0  0  0  0  0  0  0  0
  1 14  1  0  0  0  0
  1 15  1  0  0  0  0
 11  2  1  6  0  0  0
  2 19  1  0  0  0  0
 12  3  1  6  0  0  0
  3 20  1  0  0  0  0
 13  4  1  1  0  0  0
  4 21  1  0  0  0  0
 15  5  1  1  0  0  0
  5 17  1  0  0  0  0
  6 16  1  0  0  0  0
  6 28  1  0  0  0  0
  7 19  2  0  0  0  0
  8 20  2  0  0  0  0
  9 21  2  0  0  0  0
 10 28  2  0  0  0  0
 11 12  1  0  0  0  0
 11 13  1  0  0  0  0
 11 35  1  0  0  0  0
 12 14  1  0  0  0  0
 12 36  1  0  0  0  0
 13 15  1  0  0  0  0
 13 37  1  0  0  0  0
 14 16  1  1  0  0  0
 14 38  1  0  0  0  0
 15 39  1  0  0  0  0
 16 40  1  0  0  0  0
 16 41  1  0  0  0  0
 17 18  2  0  0  0  0
 17 23  1  0  0  0  0
 18 22  1  0  0  0  0
 18 24  1  0  0  0  0
 19 26  1  0  0  0  0
 20 27  1  0  0  0  0
 21 29  1  0  0  0  0
 22 30  1  0  0  0  0
 22 31  1  0  0  0  0
 22 42  1  0  0  0  0
 23 25  2  0  0  0  0
 23 43  1  0  0  0  0
 24 32  2  0  0  0  0
 24 44  1  0  0  0  0
 25 32  1  0  0  0  0
 25 33  1  0  0  0  0
 26 45  1  0  0  0  0
 26 46  1  0  0  0  0
 26 47  1  0  0  0  0
 27 48  1  0  0  0  0
 27 49  1  0  0  0  0
 27 50  1  0  0  0  0
 28 34  1  0  0  0  0
 29 51  1  0  0  0  0
 29 52  1  0  0  0  0
 29 53  1  0  0  0  0
 30 57  1  0  0  0  0
 30 58  1  0  0  0  0
 30 59  1  0  0  0  0
 31 54  1  0  0  0  0
 31 55  1  0  0  0  0
 31 56  1  0  0  0  0
 32 60  1  0  0  0  0
 33 61  1  0  0  0  0
 33 62  1  0  0  0  0
 33 63  1  0  0  0  0
 34 64  1  0  0  0  0
 34 65  1  0  0  0  0
 34 66  1  0  0  0  0
M  END
> <PUBCHEM_COMPOUND_CID>
27568246

> <PUBCHEM_COMPOUND_CANONICALIZED>
1

> <PUBCHEM_CACTVS_COMPLEXITY>
735

> <PUBCHEM_CACTVS_HBOND_ACCEPTOR>
10

> <PUBCHEM_CACTVS_HBOND_DONOR>
0

> <PUBCHEM_CACTVS_ROTATABLE_BOND>
12

> <PUBCHEM_CACTVS_SUBSKEYS>
AAADcfB4PAAAAAAAAAAAAAAAAAAAAAAAAAA0QAAAAAAAAAABAAAAGgAAAAAADRSwmAMyDoAABACIAiDSCAACCAAgIAAIiAAGCIgdJiKEMRqiOCClwBEOqAfA4PwOwAABAAAIAACAAAIAABAAAAAAAAAAAA==

> <PUBCHEM_IUPAC_OPENEYE_NAME>
[(2R,3R,4R,5S,6S)-3,4,5-triacetoxy-6-(2-isopropyl-5-methyl-phenoxy)tetrahydropyran-2-yl]methyl acetate

> <PUBCHEM_IUPAC_CAS_NAME>
acetic acid [(2R,3R,4R,5S,6S)-3,4,5-triacetyloxy-6-(5-methyl-2-propan-2-ylphenoxy)-2-oxanyl]methyl ester

> <PUBCHEM_IUPAC_NAME>
[(2R,3R,4R,5S,6S)-3,4,5-triacetyloxy-6-(5-methyl-2-propan-2-ylphenoxy)oxan-2-yl]methyl acetate

> <PUBCHEM_IUPAC_SYSTEMATIC_NAME>
[(2R,3R,4R,5S,6S)-3,4,5-triacetyloxy-6-(5-methyl-2-propan-2-yl-phenoxy)oxan-2-yl]methyl ethanoate

> <PUBCHEM_IUPAC_TRADITIONAL_NAME>
acetic acid [(2R,3R,4R,5S,6S)-3,4,5-triacetoxy-6-(2-isopropyl-5-methyl-phenoxy)tetrahydropyran-2-yl]methyl ester

> <PUBCHEM_IUPAC_INCHI>
InChI=1S/C24H32O10/c1-12(2)18-9-8-13(3)10-19(18)33-24-23(32-17(7)28)22(31-16(6)27)21(30-15(5)26)20(34-24)11-29-14(4)25/h8-10,12,20-24H,11H2,1-7H3/t20-,21-,22-,23+,24-/m1/s1

> <PUBCHEM_IUPAC_INCHIKEY>
ZFXQDMCMNZYJHB-ZSXJVMONSA-N

> <PUBCHEM_XLOGP3>
2.8

> <PUBCHEM_EXACT_MASS>
480.199547

> <PUBCHEM_MOLECULAR_FORMULA>
C24H32O10

> <PUBCHEM_MOLECULAR_WEIGHT>
480.50488

> <PUBCHEM_OPENEYE_CAN_SMILES>
CC1=CC(=C(C=C1)C(C)C)OC2C(C(C(C(O2)COC(=O)C)OC(=O)C)OC(=O)C)OC(=O)C

> <PUBCHEM_OPENEYE_ISO_SMILES>
CC1=CC(=C(C=C1)C(C)C)O[C@H]2[C@H]([C@@H]([C@@H]([C@H](O2)COC(=O)C)OC(=O)C)OC(=O)C)OC(=O)C

> <PUBCHEM_CACTVS_TPSA>
124

> <PUBCHEM_MONOISOTOPIC_WEIGHT>
480.199547

> <PUBCHEM_TOTAL_CHARGE>
0

> <PUBCHEM_HEAVY_ATOM_COUNT>
34

> <PUBCHEM_ATOM_DEF_STEREO_COUNT>
5

> <PUBCHEM_ATOM_UDEF_STEREO_COUNT>
0

> <PUBCHEM_BOND_DEF_STEREO_COUNT>
0

> <PUBCHEM_BOND_UDEF_STEREO_COUNT>
0

> <PUBCHEM_ISOTOPIC_ATOM_COUNT>
0

> <PUBCHEM_COMPONENT_COUNT>
1

> <PUBCHEM_CACTVS_TAUTO_COUNT>
1

> <PUBCHEM_COORDINATE_TYPE>
1
5
255

> <PUBCHEM_BONDANNOTATIONS>
14  16  5
17  18  8
17  23  8
18  24  8
11  2  6
23  25  8
24  32  8
25  32  8
12  3  6
13  4  5
15  5  5

$$$$
27568247
  -OEChem-12041211342D

 66 67  0     1  0  0  0  0  0999 V2000
    6.3301   -0.7500    0.0000 O   0  0  0  0  0  0  0  0  0  0  0  0
    6.3301    2.2500    0.0000 O   0  0  0  0  0  0  0  0  0  0  0  0
    8.0622    1.2500    0.0000 O   0  0  0  0  0  0  0  0  0  0  0  0
    4.5981    1.2500    0.0000 O   0  0  0  0  0  0  0  0  0  0  0  0
    4.5981   -0.7500    0.0000 O   0  0  0  0  0  0  0  0  0  0  0  0
    8.0622   -1.7500    0.0000 O   0  0  0  0  0  0  0  0  0  0  0  0
    8.0622    2.2500    0.0000 O   0  0  0  0  0  0  0  0  0  0  0  0
    8.9282   -0.2500    0.0000 O   0  0  0  0  0  0  0  0  0  0  0  0
    3.7320   -0.2500    0.0000 O   0  0  0  0  0  0  0  0  0  0  0  0
    9.7942   -1.7500    0.0000 O   0  0  0  0  0  0  0  0  0  0  0  0
    6.3301    1.2500    0.0000 C   0  0  2  0  0  0  0  0  0  0  0  0
    7.1962    0.7500    0.0000 C   0  0  1  0  0  0  0  0  0  0  0  0
    5.4641    0.7500    0.0000 C   0  0  1  0  0  0  0  0  0  0  0  0
    7.1962   -0.2500    0.0000 C   0  0  1  0  0  0  0  0  0  0  0  0
    5.4641   -0.2500    0.0000 C   0  0  2  0  0  0  0  0  0  0  0  0
    8.0622   -0.7500    0.0000 C   0  0  0  0  0  0  0  0  0  0  0  0
    4.5981   -1.7500    0.0000 C   0  0  0  0  0  0  0  0  0  0  0  0
    3.7320   -2.2500    0.0000 C   0  0  0  0  0  0  0  0  0  0  0  0
    7.1962    2.7500    0.0000 C   0  0  0  0  0  0  0  0  0  0  0  0
    8.9282    0.7500    0.0000 C   0  0  0  0  0  0  0  0  0  0  0  0
    3.7320    0.7500    0.0000 C   0  0  0  0  0  0  0  0  0  0  0  0
    2.8660   -1.7500    0.0000 C   0  0  0  0  0  0  0  0  0  0  0  0
    5.4641   -2.2500    0.0000 C   0  0  0  0  0  0  0  0  0  0  0  0
    3.7320   -3.2500    0.0000 C   0  0  0  0  0  0  0  0  0  0  0  0
    5.4641   -3.2500    0.0000 C   0  0  0  0  0  0  0  0  0  0  0  0
    7.1962    3.7500    0.0000 C   0  0  0  0  0  0  0  0  0  0  0  0
    9.7942    1.2500    0.0000 C   0  0  0  0  0  0  0  0  0  0  0  0
    8.9282   -2.2500    0.0000 C   0  0  0  0  0  0  0  0  0  0  0  0
    2.8660    1.2500    0.0000 C   0  0  0  0  0  0  0  0  0  0  0  0
    2.0000   -2.2500    0.0000 C   0  0  0  0  0  0  0  0  0  0  0  0
    2.8660   -0.7500    0.0000 C   0  0  0  0  0  0  0  0  0  0  0  0
    4.5981   -3.7500    0.0000 C   0  0  0  0  0  0  0  0  0  0  0  0
    6.3301   -3.7500    0.0000 C   0  0  0  0  0  0  0  0  0  0  0  0
    8.9282   -3.2500    0.0000 C   0  0  0  0  0  0  0  0  0  0  0  0
    6.8671    1.5600    0.0000 H   0  0  0  0  0  0  0  0  0  0  0  0
    7.7331    0.4400    0.0000 H   0  0  0  0  0  0  0  0  0  0  0  0
    5.4641    1.3700    0.0000 H   0  0  0  0  0  0  0  0  0  0  0  0
    7.1962   -0.8700    0.0000 H   0  0  0  0  0  0  0  0  0  0  0  0
    5.4641   -0.8700    0.0000 H   0  0  0  0  0  0  0  0  0  0  0  0
    8.6728   -0.8577    0.0000 H   0  0  0  0  0  0  0  0  0  0  0  0
    8.2742   -0.1674    0.0000 H   0  0  0  0  0  0  0  0  0  0  0  0
    2.8660   -2.3700    0.0000 H   0  0  0  0  0  0  0  0  0  0  0  0
    6.0010   -1.9400    0.0000 H   0  0  0  0  0  0  0  0  0  0  0  0
    3.1951   -3.5600    0.0000 H   0  0  0  0  0  0  0  0  0  0  0  0
    7.8162    3.7500    0.0000 H   0  0  0  0  0  0  0  0  0  0  0  0
    7.1962    4.3700    0.0000 H   0  0  0  0  0  0  0  0  0  0  0  0
    6.5762    3.7500    0.0000 H   0  0  0  0  0  0  0  0  0  0  0  0
   10.1042    0.7131    0.0000 H   0  0  0  0  0  0  0  0  0  0  0  0
   10.3312    1.5600    0.0000 H   0  0  0  0  0  0  0  0  0  0  0  0
    9.4842    1.7869    0.0000 H   0  0  0  0  0  0  0  0  0  0  0  0
    3.1760    1.7869    0.0000 H   0  0  0  0  0  0  0  0  0  0  0  0
    2.3291    1.5600    0.0000 H   0  0  0  0  0  0  0  0  0  0  0  0
    2.5560    0.7131    0.0000 H   0  0  0  0  0  0  0  0  0  0  0  0
    3.4860   -0.7500    0.0000 H   0  0  0  0  0  0  0  0  0  0  0  0
    2.8660   -0.1300    0.0000 H   0  0  0  0  0  0  0  0  0  0  0  0
    2.2460   -0.7500    0.0000 H   0  0  0  0  0  0  0  0  0  0  0  0
    1.6900   -1.7131    0.0000 H   0  0  0  0  0  0  0  0  0  0  0  0
    1.4631   -2.5600    0.0000 H   0  0  0  0  0  0  0  0  0  0  0  0
    2.3100   -2.7869    0.0000 H   0  0  0  0  0  0  0  0  0  0  0  0
    4.5981   -4.3700    0.0000 H   0  0  0  0  0  0  0  0  0  0  0  0
    6.0201   -4.2869    0.0000 H   0  0  0  0  0  0  0  0  0  0  0  0
    6.8671   -4.0600    0.0000 H   0  0  0  0  0  0  0  0  0  0  0  0
    6.6401   -3.2131    0.0000 H   0  0  0  0  0  0  0  0  0  0  0  0
    8.3082   -3.2500    0.0000 H   0  0  0  0  0  0  0  0  0  0  0  0
    8.9282   -3.8700    0.0000 H   0  0  0  0  0  0  0  0  0  0  0  0
    9.5482   -3.2500    0.0000 H   0  0  0  0  0  0  0  0  0  0  0  0
  1 14  1  0  0  0  0
  1 15  1  0  0  0  0
 11  2  1  6  0  0  0
  2 19  1  0  0  0  0
 12  3  1  6  0  0  0
  3 20  1  0  0  0  0
 13  4  1  1  0  0  0
  4 21  1  0  0  0  0
 15  5  1  6  0  0  0
  5 17  1  0  0  0  0
  6 16  1  0  0  0  0
  6 28  1  0  0  0  0
  7 19  2  0  0  0  0
  8 20  2  0  0  0  0
  9 21  2  0  0  0  0
 10 28  2  0  0  0  0
 11 12  1  0  0  0  0
 11 13  1  0  0  0  0
 11 35  1  0  0  0  0
 12 14  1  0  0  0  0
 12 36  1  0  0  0  0
 13 15  1  0  0  0  0
 13 37  1  0  0  0  0
 14 16  1  1  0  0  0
 14 38  1  0  0  0  0
 15 39  1  0  0  0  0
 16 40  1  0  0  0  0
 16 41  1  0  0  0  0
 17 18  2  0  0  0  0
 17 23  1  0  0  0  0
 18 22  1  0  0  0  0
 18 24  1  0  0  0  0
 19 26  1  0  0  0  0
 20 27  1  0  0  0  0
 21 29  1  0  0  0  0
 22 30  1  0  0  0  0
 22 31  1  0  0  0  0
 22 42  1  0  0  0  0
 23 25  2  0  0  0  0
 23 43  1  0  0  0  0
 24 32  2  0  0  0  0
 24 44  1  0  0  0  0
 25 32  1  0  0  0  0
 25 33  1  0  0  0  0
 26 45  1  0  0  0  0
 26 46  1  0  0  0  0
 26 47  1  0  0  0  0
 27 48  1  0  0  0  0
 27 49  1  0  0  0  0
 27 50  1  0  0  0  0
 28 34  1  0  0  0  0
 29 51  1  0  0  0  0
 29 52  1  0  0  0  0
 29 53  1  0  0  0  0
 30 57  1  0  0  0  0
 30 58  1  0  0  0  0
 30 59  1  0  0  0  0
 31 54  1  0  0  0  0
 31 55  1  0  0  0  0
 31 56  1  0  0  0  0
 32 60  1  0  0  0  0
 33 61  1  0  0  0  0
 33 62  1  0  0  0  0
 33 63  1  0  0  0  0
 34 64  1  0  0  0  0
 34 65  1  0  0  0  0
 34 66  1  0  0  0  0
M  END
> <PUBCHEM_COMPOUND_CID>
27568247

> <PUBCHEM_COMPOUND_CANONICALIZED>
1

> <PUBCHEM_CACTVS_COMPLEXITY>
735

> <PUBCHEM_CACTVS_HBOND_ACCEPTOR>
10

> <PUBCHEM_CACTVS_HBOND_DONOR>
0

> <PUBCHEM_CACTVS_ROTATABLE_BOND>
12

> <PUBCHEM_CACTVS_SUBSKEYS>
AAADcfB4PAAAAAAAAAAAAAAAAAAAAAAAAAA0QAAAAAAAAAABAAAAGgAAAAAADRSwmAMyDoAABACIAiDSCAACCAAgIAAIiAAGCIgdJiKEMRqiOCClwBEOqAfA4PwOwAABAAAIAACAAAIAABAAAAAAAAAAAA==

> <PUBCHEM_IUPAC_OPENEYE_NAME>
[(2R,3R,4R,5S,6R)-3,4,5-triacetoxy-6-(2-isopropyl-5-methyl-phenoxy)tetrahydropyran-2-yl]methyl acetate

> <PUBCHEM_IUPAC_CAS_NAME>
acetic acid [(2R,3R,4R,5S,6R)-3,4,5-triacetyloxy-6-(5-methyl-2-propan-2-ylphenoxy)-2-oxanyl]methyl ester

> <PUBCHEM_IUPAC_NAME>
[(2R,3R,4R,5S,6R)-3,4,5-triacetyloxy-6-(5-methyl-2-propan-2-ylphenoxy)oxan-2-yl]methyl acetate

> <PUBCHEM_IUPAC_SYSTEMATIC_NAME>
[(2R,3R,4R,5S,6R)-3,4,5-triacetyloxy-6-(5-methyl-2-propan-2-yl-phenoxy)oxan-2-yl]methyl ethanoate

> <PUBCHEM_IUPAC_TRADITIONAL_NAME>
acetic acid [(2R,3R,4R,5S,6R)-3,4,5-triacetoxy-6-(2-isopropyl-5-methyl-phenoxy)tetrahydropyran-2-yl]methyl ester

> <PUBCHEM_IUPAC_INCHI>
InChI=1S/C24H32O10/c1-12(2)18-9-8-13(3)10-19(18)33-24-23(32-17(7)28)22(31-16(6)27)21(30-15(5)26)20(34-24)11-29-14(4)25/h8-10,12,20-24H,11H2,1-7H3/t20-,21-,22-,23+,24+/m1/s1

> <PUBCHEM_IUPAC_INCHIKEY>
ZFXQDMCMNZYJHB-VDLPQLTJSA-N

> <PUBCHEM_XLOGP3>
2.8

> <PUBCHEM_EXACT_MASS>
480.199547

> <PUBCHEM_MOLECULAR_FORMULA>
C24H32O10

> <PUBCHEM_MOLECULAR_WEIGHT>
480.50488

> <PUBCHEM_OPENEYE_CAN_SMILES>
CC1=CC(=C(C=C1)C(C)C)OC2C(C(C(C(O2)COC(=O)C)OC(=O)C)OC(=O)C)OC(=O)C

> <PUBCHEM_OPENEYE_ISO_SMILES>
CC1=CC(=C(C=C1)C(C)C)O[C@@H]2[C@H]([C@@H]([C@@H]([C@H](O2)COC(=O)C)OC(=O)C)OC(=O)C)OC(=O)C

> <PUBCHEM_CACTVS_TPSA>
124

> <PUBCHEM_MONOISOTOPIC_WEIGHT>
480.199547

> <PUBCHEM_TOTAL_CHARGE>
0

> <PUBCHEM_HEAVY_ATOM_COUNT>
34

> <PUBCHEM_ATOM_DEF_STEREO_COUNT>
5

> <PUBCHEM_ATOM_UDEF_STEREO_COUNT>
0

> <PUBCHEM_BOND_DEF_STEREO_COUNT>
0

> <PUBCHEM_BOND_UDEF_STEREO_COUNT>
0

> <PUBCHEM_ISOTOPIC_ATOM_COUNT>
0

> <PUBCHEM_COMPONENT_COUNT>
1

> <PUBCHEM_CACTVS_TAUTO_COUNT>
1

> <PUBCHEM_COORDINATE_TYPE>
1
5
255

> <PUBCHEM_BONDANNOTATIONS>
14  16  5
17  18  8
17  23  8
18  24  8
11  2  6
23  25  8
24  32  8
25  32  8
12  3  6
13  4  5
15  5  6

$$$$
27574692
  -OEChem-12041211342D

 63 64  0     1  0  0  0  0  0999 V2000
    5.4641    0.5000    0.0000 O   0  0  0  0  0  0  0  0  0  0  0  0
    5.4641    3.5000    0.0000 O   0  0  0  0  0  0  0  0  0  0  0  0
    7.1962    2.5000    0.0000 O   0  0  0  0  0  0  0  0  0  0  0  0
    3.7320    2.5000    0.0000 O   0  0  0  0  0  0  0  0  0  0  0  0
    3.7320    0.5000    0.0000 O   0  0  0  0  0  0  0  0  0  0  0  0
    7.1962   -0.5000    0.0000 O   0  0  0  0  0  0  0  0  0  0  0  0
    7.1962    3.5000    0.0000 O   0  0  0  0  0  0  0  0  0  0  0  0
    8.0622    1.0000    0.0000 O   0  0  0  0  0  0  0  0  0  0  0  0
    2.8660    1.0000    0.0000 O   0  0  0  0  0  0  0  0  0  0  0  0
    8.9282   -0.5000    0.0000 O   0  0  0  0  0  0  0  0  0  0  0  0
    5.4641    2.5000    0.0000 C   0  0  2  0  0  0  0  0  0  0  0  0
    6.3301    2.0000    0.0000 C   0  0  1  0  0  0  0  0  0  0  0  0
    4.5981    2.0000    0.0000 C   0  0  1  0  0  0  0  0  0  0  0  0
    6.3301    1.0000    0.0000 C   0  0  1  0  0  0  0  0  0  0  0  0
    4.5981    1.0000    0.0000 C   0  0  1  0  0  0  0  0  0  0  0  0
    7.1962    0.5000    0.0000 C   0  0  0  0  0  0  0  0  0  0  0  0
    3.7320   -0.5000    0.0000 C   0  0  0  0  0  0  0  0  0  0  0  0
    6.3301    4.0000    0.0000 C   0  0  0  0  0  0  0  0  0  0  0  0
    8.0622    2.0000    0.0000 C   0  0  0  0  0  0  0  0  0  0  0  0
    2.8660    2.0000    0.0000 C   0  0  0  0  0  0  0  0  0  0  0  0
    2.8660   -1.0000    0.0000 C   0  0  0  0  0  0  0  0  0  0  0  0
    4.5981   -1.0000    0.0000 C   0  0  0  0  0  0  0  0  0  0  0  0
    6.3301    5.0000    0.0000 C   0  0  0  0  0  0  0  0  0  0  0  0
    8.9282    2.5000    0.0000 C   0  0  0  0  0  0  0  0  0  0  0  0
    8.0622   -1.0000    0.0000 C   0  0  0  0  0  0  0  0  0  0  0  0
    2.0000    2.5000    0.0000 C   0  0  0  0  0  0  0  0  0  0  0  0
    3.7320   -2.5000    0.0000 C   0  0  0  0  0  0  0  0  0  0  0  0
    2.8660   -2.0000    0.0000 C   0  0  0  0  0  0  0  0  0  0  0  0
    4.5981   -2.0000    0.0000 C   0  0  0  0  0  0  0  0  0  0  0  0
    3.7320   -3.5000    0.0000 C   0  0  0  0  0  0  0  0  0  0  0  0
    8.0622   -2.0000    0.0000 C   0  0  0  0  0  0  0  0  0  0  0  0
    2.8660   -4.0000    0.0000 C   0  0  0  0  0  0  0  0  0  0  0  0
    2.8660   -5.0000    0.0000 C   0  0  0  0  0  0  0  0  0  0  0  0
    6.0010    2.8100    0.0000 H   0  0  0  0  0  0  0  0  0  0  0  0
    6.8671    1.6900    0.0000 H   0  0  0  0  0  0  0  0  0  0  0  0
    4.5981    2.6200    0.0000 H   0  0  0  0  0  0  0  0  0  0  0  0
    6.3301    0.3800    0.0000 H   0  0  0  0  0  0  0  0  0  0  0  0
    4.5981    0.3800    0.0000 H   0  0  0  0  0  0  0  0  0  0  0  0
    7.8067    0.3923    0.0000 H   0  0  0  0  0  0  0  0  0  0  0  0
    7.4082    1.0826    0.0000 H   0  0  0  0  0  0  0  0  0  0  0  0
    2.3291   -0.6900    0.0000 H   0  0  0  0  0  0  0  0  0  0  0  0
    5.1350   -0.6900    0.0000 H   0  0  0  0  0  0  0  0  0  0  0  0
    6.9501    5.0000    0.0000 H   0  0  0  0  0  0  0  0  0  0  0  0
    6.3301    5.6200    0.0000 H   0  0  0  0  0  0  0  0  0  0  0  0
    5.7101    5.0000    0.0000 H   0  0  0  0  0  0  0  0  0  0  0  0
    9.2382    1.9631    0.0000 H   0  0  0  0  0  0  0  0  0  0  0  0
    9.4651    2.8100    0.0000 H   0  0  0  0  0  0  0  0  0  0  0  0
    8.6182    3.0369    0.0000 H   0  0  0  0  0  0  0  0  0  0  0  0
    2.3100    3.0369    0.0000 H   0  0  0  0  0  0  0  0  0  0  0  0
    1.4631    2.8100    0.0000 H   0  0  0  0  0  0  0  0  0  0  0  0
    1.6900    1.9631    0.0000 H   0  0  0  0  0  0  0  0  0  0  0  0
    2.3291   -2.3100    0.0000 H   0  0  0  0  0  0  0  0  0  0  0  0
    5.1350   -2.3100    0.0000 H   0  0  0  0  0  0  0  0  0  0  0  0
    3.9441   -4.0826    0.0000 H   0  0  0  0  0  0  0  0  0  0  0  0
    4.3426   -3.3923    0.0000 H   0  0  0  0  0  0  0  0  0  0  0  0
    7.4422   -2.0000    0.0000 H   0  0  0  0  0  0  0  0  0  0  0  0
    8.0622   -2.6200    0.0000 H   0  0  0  0  0  0  0  0  0  0  0  0
    8.6822   -2.0000    0.0000 H   0  0  0  0  0  0  0  0  0  0  0  0
    2.6540   -3.4174    0.0000 H   0  0  0  0  0  0  0  0  0  0  0  0
    2.2554   -4.1077    0.0000 H   0  0  0  0  0  0  0  0  0  0  0  0
    2.2460   -5.0000    0.0000 H   0  0  0  0  0  0  0  0  0  0  0  0
    2.8660   -5.6200    0.0000 H   0  0  0  0  0  0  0  0  0  0  0  0
    3.4860   -5.0000    0.0000 H   0  0  0  0  0  0  0  0  0  0  0  0
  1 14  1  0  0  0  0
  1 15  1  0  0  0  0
 11  2  1  6  0  0  0
  2 18  1  0  0  0  0
 12  3  1  6  0  0  0
  3 19  1  0  0  0  0
 13  4  1  1  0  0  0
  4 20  1  0  0  0  0
 15  5  1  1  0  0  0
  5 17  1  0  0  0  0
  6 16  1  0  0  0  0
  6 25  1  0  0  0  0
  7 18  2  0  0  0  0
  8 19  2  0  0  0  0
  9 20  2  0  0  0  0
 10 25  2  0  0  0  0
 11 12  1  0  0  0  0
 11 13  1  0  0  0  0
 11 34  1  0  0  0  0
 12 14  1  0  0  0  0
 12 35  1  0  0  0  0
 13 15  1  0  0  0  0
 13 36  1  0  0  0  0
 14 16  1  1  0  0  0
 14 37  1  0  0  0  0
 15 38  1  0  0  0  0
 16 39  1  0  0  0  0
 16 40  1  0  0  0  0
 17 21  2  0  0  0  0
 17 22  1  0  0  0  0
 18 23  1  0  0  0  0
 19 24  1  0  0  0  0
 20 26  1  0  0  0  0
 21 28  1  0  0  0  0
 21 41  1  0  0  0  0
 22 29  2  0  0  0  0
 22 42  1  0  0  0  0
 23 43  1  0  0  0  0
 23 44  1  0  0  0  0
 23 45  1  0  0  0  0
 24 46  1  0  0  0  0
 24 47  1  0  0  0  0
 24 48  1  0  0  0  0
 25 31  1  0  0  0  0
 26 49  1  0  0  0  0
 26 50  1  0  0  0  0
 26 51  1  0  0  0  0
 27 28  2  0  0  0  0
 27 29  1  0  0  0  0
 27 30  1  0  0  0  0
 28 52  1  0  0  0  0
 29 53  1  0  0  0  0
 30 32  1  0  0  0  0
 30 54  1  0  0  0  0
 30 55  1  0  0  0  0
 31 56  1  0  0  0  0
 31 57  1  0  0  0  0
 31 58  1  0  0  0  0
 32 33  1  0  0  0  0
 32 59  1  0  0  0  0
 32 60  1  0  0  0  0
 33 61  1  0  0  0  0
 33 62  1  0  0  0  0
 33 63  1  0  0  0  0
M  END
> <PUBCHEM_COMPOUND_CID>
27574692

> <PUBCHEM_COMPOUND_CANONICALIZED>
1

> <PUBCHEM_CACTVS_COMPLEXITY>
685

> <PUBCHEM_CACTVS_HBOND_ACCEPTOR>
10

> <PUBCHEM_CACTVS_HBOND_DONOR>
0

> <PUBCHEM_CACTVS_ROTATABLE_BOND>
13

> <PUBCHEM_CACTVS_SUBSKEYS>
AAADceB4PAAAAAAAAAAAAAAAAAAAAAAAAAA0QAAAAAAAAAABAAAAGgAAAAAADBSwmAMyDoAABACIAiDSCAACCAAgIAAIiAAGCIgdJiKEMRqiOCClwBEOqAfA4KwOIAAAAAAAAABAAAAAAAAAAAAAAAAAAA==

> <PUBCHEM_IUPAC_OPENEYE_NAME>
[(2R,3R,4R,5S,6S)-3,4,5-triacetoxy-6-(4-propylphenoxy)tetrahydropyran-2-yl]methyl acetate

> <PUBCHEM_IUPAC_CAS_NAME>
acetic acid [(2R,3R,4R,5S,6S)-3,4,5-triacetyloxy-6-(4-propylphenoxy)-2-oxanyl]methyl ester

> <PUBCHEM_IUPAC_NAME>
[(2R,3R,4R,5S,6S)-3,4,5-triacetyloxy-6-(4-propylphenoxy)oxan-2-yl]methyl acetate

> <PUBCHEM_IUPAC_SYSTEMATIC_NAME>
[(2R,3R,4R,5S,6S)-3,4,5-triacetyloxy-6-(4-propylphenoxy)oxan-2-yl]methyl ethanoate

> <PUBCHEM_IUPAC_TRADITIONAL_NAME>
acetic acid [(2R,3R,4R,5S,6S)-3,4,5-triacetoxy-6-(4-propylphenoxy)tetrahydropyran-2-yl]methyl ester

> <PUBCHEM_IUPAC_INCHI>
InChI=1S/C23H30O10/c1-6-7-17-8-10-18(11-9-17)32-23-22(31-16(5)27)21(30-15(4)26)20(29-14(3)25)19(33-23)12-28-13(2)24/h8-11,19-23H,6-7,12H2,1-5H3/t19-,20-,21-,22+,23-/m1/s1

> <PUBCHEM_IUPAC_INCHIKEY>
BRLYMULUBJNKER-FWKCKQQBSA-N

> <PUBCHEM_XLOGP3>
3.7

> <PUBCHEM_EXACT_MASS>
466.183897

> <PUBCHEM_MOLECULAR_FORMULA>
C23H30O10

> <PUBCHEM_MOLECULAR_WEIGHT>
466.4783

> <PUBCHEM_OPENEYE_CAN_SMILES>
CCCC1=CC=C(C=C1)OC2C(C(C(C(O2)COC(=O)C)OC(=O)C)OC(=O)C)OC(=O)C

> <PUBCHEM_OPENEYE_ISO_SMILES>
CCCC1=CC=C(C=C1)O[C@H]2[C@H]([C@@H]([C@@H]([C@H](O2)COC(=O)C)OC(=O)C)OC(=O)C)OC(=O)C

> <PUBCHEM_CACTVS_TPSA>
124

> <PUBCHEM_MONOISOTOPIC_WEIGHT>
466.183897

> <PUBCHEM_TOTAL_CHARGE>
0

> <PUBCHEM_HEAVY_ATOM_COUNT>
33

> <PUBCHEM_ATOM_DEF_STEREO_COUNT>
5

> <PUBCHEM_ATOM_UDEF_STEREO_COUNT>
0

> <PUBCHEM_BOND_DEF_STEREO_COUNT>
0

> <PUBCHEM_BOND_UDEF_STEREO_COUNT>
0

> <PUBCHEM_ISOTOPIC_ATOM_COUNT>
0

> <PUBCHEM_COMPONENT_COUNT>
1

> <PUBCHEM_CACTVS_TAUTO_COUNT>
1

> <PUBCHEM_COORDINATE_TYPE>
1
5
255

> <PUBCHEM_BONDANNOTATIONS>
14  16  5
17  21  8
17  22  8
11  2  6
21  28  8
22  29  8
27  28  8
27  29  8
12  3  6
13  4  5
15  5  5

$$$$
27574694
  -OEChem-12041211342D

 63 64  0     1  0  0  0  0  0999 V2000
    5.4641    0.5000    0.0000 O   0  0  0  0  0  0  0  0  0  0  0  0
    5.4641    3.5000    0.0000 O   0  0  0  0  0  0  0  0  0  0  0  0
    7.1962    2.5000    0.0000 O   0  0  0  0  0  0  0  0  0  0  0  0
    3.7320    2.5000    0.0000 O   0  0  0  0  0  0  0  0  0  0  0  0
    3.7320    0.5000    0.0000 O   0  0  0  0  0  0  0  0  0  0  0  0
    7.1962   -0.5000    0.0000 O   0  0  0  0  0  0  0  0  0  0  0  0
    7.1962    3.5000    0.0000 O   0  0  0  0  0  0  0  0  0  0  0  0
    8.0622    1.0000    0.0000 O   0  0  0  0  0  0  0  0  0  0  0  0
    2.8660    1.0000    0.0000 O   0  0  0  0  0  0  0  0  0  0  0  0
    8.9282   -0.5000    0.0000 O   0  0  0  0  0  0  0  0  0  0  0  0
    5.4641    2.5000    0.0000 C   0  0  2  0  0  0  0  0  0  0  0  0
    6.3301    2.0000    0.0000 C   0  0  1  0  0  0  0  0  0  0  0  0
    4.5981    2.0000    0.0000 C   0  0  1  0  0  0  0  0  0  0  0  0
    6.3301    1.0000    0.0000 C   0  0  1  0  0  0  0  0  0  0  0  0
    4.5981    1.0000    0.0000 C   0  0  2  0  0  0  0  0  0  0  0  0
    7.1962    0.5000    0.0000 C   0  0  0  0  0  0  0  0  0  0  0  0
    3.7320   -0.5000    0.0000 C   0  0  0  0  0  0  0  0  0  0  0  0
    6.3301    4.0000    0.0000 C   0  0  0  0  0  0  0  0  0  0  0  0
    8.0622    2.0000    0.0000 C   0  0  0  0  0  0  0  0  0  0  0  0
    2.8660    2.0000    0.0000 C   0  0  0  0  0  0  0  0  0  0  0  0
    2.8660   -1.0000    0.0000 C   0  0  0  0  0  0  0  0  0  0  0  0
    4.5981   -1.0000    0.0000 C   0  0  0  0  0  0  0  0  0  0  0  0
    6.3301    5.0000    0.0000 C   0  0  0  0  0  0  0  0  0  0  0  0
    8.9282    2.5000    0.0000 C   0  0  0  0  0  0  0  0  0  0  0  0
    8.0622   -1.0000    0.0000 C   0  0  0  0  0  0  0  0  0  0  0  0
    2.0000    2.5000    0.0000 C   0  0  0  0  0  0  0  0  0  0  0  0
    3.7320   -2.5000    0.0000 C   0  0  0  0  0  0  0  0  0  0  0  0
    2.8660   -2.0000    0.0000 C   0  0  0  0  0  0  0  0  0  0  0  0
    4.5981   -2.0000    0.0000 C   0  0  0  0  0  0  0  0  0  0  0  0
    3.7320   -3.5000    0.0000 C   0  0  0  0  0  0  0  0  0  0  0  0
    8.0622   -2.0000    0.0000 C   0  0  0  0  0  0  0  0  0  0  0  0
    2.8660   -4.0000    0.0000 C   0  0  0  0  0  0  0  0  0  0  0  0
    2.8660   -5.0000    0.0000 C   0  0  0  0  0  0  0  0  0  0  0  0
    6.0010    2.8100    0.0000 H   0  0  0  0  0  0  0  0  0  0  0  0
    6.8671    1.6900    0.0000 H   0  0  0  0  0  0  0  0  0  0  0  0
    4.5981    2.6200    0.0000 H   0  0  0  0  0  0  0  0  0  0  0  0
    6.3301    0.3800    0.0000 H   0  0  0  0  0  0  0  0  0  0  0  0
    4.5981    0.3800    0.0000 H   0  0  0  0  0  0  0  0  0  0  0  0
    7.8067    0.3923    0.0000 H   0  0  0  0  0  0  0  0  0  0  0  0
    7.4082    1.0826    0.0000 H   0  0  0  0  0  0  0  0  0  0  0  0
    2.3291   -0.6900    0.0000 H   0  0  0  0  0  0  0  0  0  0  0  0
    5.1350   -0.6900    0.0000 H   0  0  0  0  0  0  0  0  0  0  0  0
    6.9501    5.0000    0.0000 H   0  0  0  0  0  0  0  0  0  0  0  0
    6.3301    5.6200    0.0000 H   0  0  0  0  0  0  0  0  0  0  0  0
    5.7101    5.0000    0.0000 H   0  0  0  0  0  0  0  0  0  0  0  0
    9.2382    1.9631    0.0000 H   0  0  0  0  0  0  0  0  0  0  0  0
    9.4651    2.8100    0.0000 H   0  0  0  0  0  0  0  0  0  0  0  0
    8.6182    3.0369    0.0000 H   0  0  0  0  0  0  0  0  0  0  0  0
    2.3100    3.0369    0.0000 H   0  0  0  0  0  0  0  0  0  0  0  0
    1.4631    2.8100    0.0000 H   0  0  0  0  0  0  0  0  0  0  0  0
    1.6900    1.9631    0.0000 H   0  0  0  0  0  0  0  0  0  0  0  0
    2.3291   -2.3100    0.0000 H   0  0  0  0  0  0  0  0  0  0  0  0
    5.1350   -2.3100    0.0000 H   0  0  0  0  0  0  0  0  0  0  0  0
    3.9441   -4.0826    0.0000 H   0  0  0  0  0  0  0  0  0  0  0  0
    4.3426   -3.3923    0.0000 H   0  0  0  0  0  0  0  0  0  0  0  0
    7.4422   -2.0000    0.0000 H   0  0  0  0  0  0  0  0  0  0  0  0
    8.0622   -2.6200    0.0000 H   0  0  0  0  0  0  0  0  0  0  0  0
    8.6822   -2.0000    0.0000 H   0  0  0  0  0  0  0  0  0  0  0  0
    2.6540   -3.4174    0.0000 H   0  0  0  0  0  0  0  0  0  0  0  0
    2.2554   -4.1077    0.0000 H   0  0  0  0  0  0  0  0  0  0  0  0
    2.2460   -5.0000    0.0000 H   0  0  0  0  0  0  0  0  0  0  0  0
    2.8660   -5.6200    0.0000 H   0  0  0  0  0  0  0  0  0  0  0  0
    3.4860   -5.0000    0.0000 H   0  0  0  0  0  0  0  0  0  0  0  0
  1 14  1  0  0  0  0
  1 15  1  0  0  0  0
 11  2  1  6  0  0  0
  2 18  1  0  0  0  0
 12  3  1  6  0  0  0
  3 19  1  0  0  0  0
 13  4  1  1  0  0  0
  4 20  1  0  0  0  0
 15  5  1  6  0  0  0
  5 17  1  0  0  0  0
  6 16  1  0  0  0  0
  6 25  1  0  0  0  0
  7 18  2  0  0  0  0
  8 19  2  0  0  0  0
  9 20  2  0  0  0  0
 10 25  2  0  0  0  0
 11 12  1  0  0  0  0
 11 13  1  0  0  0  0
 11 34  1  0  0  0  0
 12 14  1  0  0  0  0
 12 35  1  0  0  0  0
 13 15  1  0  0  0  0
 13 36  1  0  0  0  0
 14 16  1  1  0  0  0
 14 37  1  0  0  0  0
 15 38  1  0  0  0  0
 16 39  1  0  0  0  0
 16 40  1  0  0  0  0
 17 21  2  0  0  0  0
 17 22  1  0  0  0  0
 18 23  1  0  0  0  0
 19 24  1  0  0  0  0
 20 26  1  0  0  0  0
 21 28  1  0  0  0  0
 21 41  1  0  0  0  0
 22 29  2  0  0  0  0
 22 42  1  0  0  0  0
 23 43  1  0  0  0  0
 23 44  1  0  0  0  0
 23 45  1  0  0  0  0
 24 46  1  0  0  0  0
 24 47  1  0  0  0  0
 24 48  1  0  0  0  0
 25 31  1  0  0  0  0
 26 49  1  0  0  0  0
 26 50  1  0  0  0  0
 26 51  1  0  0  0  0
 27 28  2  0  0  0  0
 27 29  1  0  0  0  0
 27 30  1  0  0  0  0
 28 52  1  0  0  0  0
 29 53  1  0  0  0  0
 30 32  1  0  0  0  0
 30 54  1  0  0  0  0
 30 55  1  0  0  0  0
 31 56  1  0  0  0  0
 31 57  1  0  0  0  0
 31 58  1  0  0  0  0
 32 33  1  0  0  0  0
 32 59  1  0  0  0  0
 32 60  1  0  0  0  0
 33 61  1  0  0  0  0
 33 62  1  0  0  0  0
 33 63  1  0  0  0  0
M  END
> <PUBCHEM_COMPOUND_CID>
27574694

> <PUBCHEM_COMPOUND_CANONICALIZED>
1

> <PUBCHEM_CACTVS_COMPLEXITY>
685

> <PUBCHEM_CACTVS_HBOND_ACCEPTOR>
10

> <PUBCHEM_CACTVS_HBOND_DONOR>
0

> <PUBCHEM_CACTVS_ROTATABLE_BOND>
13

> <PUBCHEM_CACTVS_SUBSKEYS>
AAADceB4PAAAAAAAAAAAAAAAAAAAAAAAAAA0QAAAAAAAAAABAAAAGgAAAAAADBSwmAMyDoAABACIAiDSCAACCAAgIAAIiAAGCIgdJiKEMRqiOCClwBEOqAfA4KwOIAAAAAAAAABAAAAAAAAAAAAAAAAAAA==

> <PUBCHEM_IUPAC_OPENEYE_NAME>
[(2R,3R,4R,5S,6R)-3,4,5-triacetoxy-6-(4-propylphenoxy)tetrahydropyran-2-yl]methyl acetate

> <PUBCHEM_IUPAC_CAS_NAME>
acetic acid [(2R,3R,4R,5S,6R)-3,4,5-triacetyloxy-6-(4-propylphenoxy)-2-oxanyl]methyl ester

> <PUBCHEM_IUPAC_NAME>
[(2R,3R,4R,5S,6R)-3,4,5-triacetyloxy-6-(4-propylphenoxy)oxan-2-yl]methyl acetate

> <PUBCHEM_IUPAC_SYSTEMATIC_NAME>
[(2R,3R,4R,5S,6R)-3,4,5-triacetyloxy-6-(4-propylphenoxy)oxan-2-yl]methyl ethanoate

> <PUBCHEM_IUPAC_TRADITIONAL_NAME>
acetic acid [(2R,3R,4R,5S,6R)-3,4,5-triacetoxy-6-(4-propylphenoxy)tetrahydropyran-2-yl]methyl ester

> <PUBCHEM_IUPAC_INCHI>
InChI=1S/C23H30O10/c1-6-7-17-8-10-18(11-9-17)32-23-22(31-16(5)27)21(30-15(4)26)20(29-14(3)25)19(33-23)12-28-13(2)24/h8-11,19-23H,6-7,12H2,1-5H3/t19-,20-,21-,22+,23+/m1/s1

> <PUBCHEM_IUPAC_INCHIKEY>
BRLYMULUBJNKER-CCSDVLNMSA-N

> <PUBCHEM_XLOGP3>
3.7

> <PUBCHEM_EXACT_MASS>
466.183897

> <PUBCHEM_MOLECULAR_FORMULA>
C23H30O10

> <PUBCHEM_MOLECULAR_WEIGHT>
466.4783

> <PUBCHEM_OPENEYE_CAN_SMILES>
CCCC1=CC=C(C=C1)OC2C(C(C(C(O2)COC(=O)C)OC(=O)C)OC(=O)C)OC(=O)C

> <PUBCHEM_OPENEYE_ISO_SMILES>
CCCC1=CC=C(C=C1)O[C@@H]2[C@H]([C@@H]([C@@H]([C@H](O2)COC(=O)C)OC(=O)C)OC(=O)C)OC(=O)C

> <PUBCHEM_CACTVS_TPSA>
124

> <PUBCHEM_MONOISOTOPIC_WEIGHT>
466.183897

> <PUBCHEM_TOTAL_CHARGE>
0

> <PUBCHEM_HEAVY_ATOM_COUNT>
33

> <PUBCHEM_ATOM_DEF_STEREO_COUNT>
5

> <PUBCHEM_ATOM_UDEF_STEREO_COUNT>
0

> <PUBCHEM_BOND_DEF_STEREO_COUNT>
0

> <PUBCHEM_BOND_UDEF_STEREO_COUNT>
0

> <PUBCHEM_ISOTOPIC_ATOM_COUNT>
0

> <PUBCHEM_COMPONENT_COUNT>
1

> <PUBCHEM_CACTVS_TAUTO_COUNT>
1

> <PUBCHEM_COORDINATE_TYPE>
1
5
255

> <PUBCHEM_BONDANNOTATIONS>
14  16  5
17  21  8
17  22  8
11  2  6
21  28  8
22  29  8
27  28  8
27  29  8
12  3  6
13  4  5
15  5  6

$$$$
