56704323
  -OEChem-11301218102D

 33 35  0     0  0  0  0  0  0999 V2000
    4.2690   -2.3870    0.0000 O   0  0  0  0  0  0  0  0  0  0  0  0
    7.8133    2.4177    0.0000 N   0  0  0  0  0  0  0  0  0  0  0  0
    2.5369   -2.3870    0.0000 N   0  0  0  0  0  0  0  0  0  0  0  0
    5.1350    1.1130    0.0000 C   0  0  0  0  0  0  0  0  0  0  0  0
    4.2690    0.6130    0.0000 C   0  0  0  0  0  0  0  0  0  0  0  0
    6.8671    1.1130    0.0000 C   0  0  0  0  0  0  0  0  0  0  0  0
    6.8671    2.1130    0.0000 C   0  0  0  0  0  0  0  0  0  0  0  0
    6.0010    0.6130    0.0000 C   0  0  0  0  0  0  0  0  0  0  0  0
    3.4030    1.1130    0.0000 C   0  0  0  0  0  0  0  0  0  0  0  0
    5.1350    2.1130    0.0000 C   0  0  0  0  0  0  0  0  0  0  0  0
    6.0010    2.6130    0.0000 C   0  0  0  0  0  0  0  0  0  0  0  0
    4.2690   -0.3870    0.0000 C   0  0  0  0  0  0  0  0  0  0  0  0
    7.8133    0.8082    0.0000 C   0  0  0  0  0  0  0  0  0  0  0  0
    3.4030   -0.8870    0.0000 C   0  0  0  0  0  0  0  0  0  0  0  0
    2.5369    0.6130    0.0000 C   0  0  0  0  0  0  0  0  0  0  0  0
    8.3969    1.6130    0.0000 C   0  0  0  0  0  0  0  0  0  0  0  0
    2.5369   -0.3870    0.0000 C   0  0  0  0  0  0  0  0  0  0  0  0
    3.4030    2.1130    0.0000 C   0  0  0  0  0  0  0  0  0  0  0  0
    3.4030   -1.8870    0.0000 C   0  0  0  0  0  0  0  0  0  0  0  0
    6.0010   -0.0070    0.0000 H   0  0  0  0  0  0  0  0  0  0  0  0
    4.5981    2.4230    0.0000 H   0  0  0  0  0  0  0  0  0  0  0  0
    6.0010    3.2330    0.0000 H   0  0  0  0  0  0  0  0  0  0  0  0
    4.8059   -0.6970    0.0000 H   0  0  0  0  0  0  0  0  0  0  0  0
    8.0059    0.2189    0.0000 H   0  0  0  0  0  0  0  0  0  0  0  0
    8.0059    3.0070    0.0000 H   0  0  0  0  0  0  0  0  0  0  0  0
    2.0000    0.9230    0.0000 H   0  0  0  0  0  0  0  0  0  0  0  0
    9.0169    1.6130    0.0000 H   0  0  0  0  0  0  0  0  0  0  0  0
    2.0000   -0.6970    0.0000 H   0  0  0  0  0  0  0  0  0  0  0  0
    4.0230    2.1130    0.0000 H   0  0  0  0  0  0  0  0  0  0  0  0
    3.4030    2.7330    0.0000 H   0  0  0  0  0  0  0  0  0  0  0  0
    2.7830    2.1130    0.0000 H   0  0  0  0  0  0  0  0  0  0  0  0
    2.5369   -3.0070    0.0000 H   0  0  0  0  0  0  0  0  0  0  0  0
    2.0000   -2.0770    0.0000 H   0  0  0  0  0  0  0  0  0  0  0  0
  1 19  2  0  0  0  0
  2  7  1  0  0  0  0
  2 16  1  0  0  0  0
  2 25  1  0  0  0  0
  3 19  1  0  0  0  0
  3 32  1  0  0  0  0
  3 33  1  0  0  0  0
  4  5  1  0  0  0  0
  4  8  2  0  0  0  0
  4 10  1  0  0  0  0
  5  9  2  0  0  0  0
  5 12  1  0  0  0  0
  6  7  2  0  0  0  0
  6  8  1  0  0  0  0
  6 13  1  0  0  0  0
  7 11  1  0  0  0  0
  8 20  1  0  0  0  0
  9 15  1  0  0  0  0
  9 18  1  0  0  0  0
 10 11  2  0  0  0  0
 10 21  1  0  0  0  0
 11 22  1  0  0  0  0
 12 14  2  0  0  0  0
 12 23  1  0  0  0  0
 13 16  2  0  0  0  0
 13 24  1  0  0  0  0
 14 17  1  0  0  0  0
 14 19  1  0  0  0  0
 15 17  2  0  0  0  0
 15 26  1  0  0  0  0
 16 27  1  0  0  0  0
 17 28  1  0  0  0  0
 18 29  1  0  0  0  0
 18 30  1  0  0  0  0
 18 31  1  0  0  0  0
M  END
> <PUBCHEM_COMPOUND_CID>
56704323

> <PUBCHEM_COMPOUND_CANONICALIZED>
1

> <PUBCHEM_CACTVS_COMPLEXITY>
344

> <PUBCHEM_CACTVS_HBOND_ACCEPTOR>
1

> <PUBCHEM_CACTVS_HBOND_DONOR>
2

> <PUBCHEM_CACTVS_ROTATABLE_BOND>
2

> <PUBCHEM_CACTVS_SUBSKEYS>
AAADccB7IAAAAAAAAAAAAAAAAAAAAWAAAAAwYAAAAAAAAFgB9AAAHgAQAAAADAjBngQ+wPLJkACoAzV3VACCgCA1AiAI2aE4ZNgIIPLAlZGEIQhgkADIyYcYiMCOyAACAAASAACQAAQAACQAAAAAAAAAAA==

> <PUBCHEM_IUPAC_OPENEYE_NAME>
3-(1H-indol-5-yl)-4-methyl-benzamide

> <PUBCHEM_IUPAC_CAS_NAME>
3-(1H-indol-5-yl)-4-methylbenzamide

> <PUBCHEM_IUPAC_NAME>
3-(1H-indol-5-yl)-4-methylbenzamide

> <PUBCHEM_IUPAC_SYSTEMATIC_NAME>
3-(1H-indol-5-yl)-4-methyl-benzamide

> <PUBCHEM_IUPAC_TRADITIONAL_NAME>
3-(1H-indol-5-yl)-4-methyl-benzamide

> <PUBCHEM_IUPAC_INCHI>
InChI=1S/C16H14N2O/c1-10-2-3-13(16(17)19)9-14(10)11-4-5-15-12(8-11)6-7-18-15/h2-9,18H,1H3,(H2,17,19)

> <PUBCHEM_IUPAC_INCHIKEY>
GZYRUJXSNQVMDW-UHFFFAOYSA-N

> <PUBCHEM_XLOGP3>
3.2

> <PUBCHEM_EXACT_MASS>
250.110613

> <PUBCHEM_MOLECULAR_FORMULA>
C16H14N2O

> <PUBCHEM_MOLECULAR_WEIGHT>
250.29516

> <PUBCHEM_OPENEYE_CAN_SMILES>
CC1=C(C=C(C=C1)C(=O)N)C2=CC3=C(C=C2)NC=C3

> <PUBCHEM_OPENEYE_ISO_SMILES>
CC1=C(C=C(C=C1)C(=O)N)C2=CC3=C(C=C2)NC=C3

> <PUBCHEM_CACTVS_TPSA>
58.9

> <PUBCHEM_MONOISOTOPIC_WEIGHT>
250.110613

> <PUBCHEM_TOTAL_CHARGE>
0

> <PUBCHEM_HEAVY_ATOM_COUNT>
19

> <PUBCHEM_ATOM_DEF_STEREO_COUNT>
0

> <PUBCHEM_ATOM_UDEF_STEREO_COUNT>
0

> <PUBCHEM_BOND_DEF_STEREO_COUNT>
0

> <PUBCHEM_BOND_UDEF_STEREO_COUNT>
0

> <PUBCHEM_ISOTOPIC_ATOM_COUNT>
0

> <PUBCHEM_COMPONENT_COUNT>
1

> <PUBCHEM_CACTVS_TAUTO_COUNT>
10

> <PUBCHEM_COORDINATE_TYPE>
1
5
255

> <PUBCHEM_BONDANNOTATIONS>
10  11  8
12  14  8
13  16  8
14  17  8
15  17  8
2  16  8
2  7  8
4  10  8
4  8  8
5  12  8
5  9  8
6  13  8
6  7  8
6  8  8
7  11  8
9  15  8

$$$$
56707900
  -OEChem-11301218112D

 31 33  0     0  0  0  0  0  0999 V2000
   10.5920    0.5530    0.0000 O   0  0  0  0  0  0  0  0  0  0  0  0
    9.0084    1.3577    0.0000 N   0  0  0  0  0  0  0  0  0  0  0  0
    8.0622    0.0530    0.0000 C   0  0  0  0  0  0  0  0  0  0  0  0
    9.0084   -0.2518    0.0000 C   0  0  0  0  0  0  0  0  0  0  0  0
    8.0622    1.0530    0.0000 C   0  0  0  0  0  0  0  0  0  0  0  0
    7.1962   -0.4470    0.0000 C   0  0  0  0  0  0  0  0  0  0  0  0
    9.5920    0.5530    0.0000 C   0  0  0  0  0  0  0  0  0  0  0  0
    6.3301    0.0530    0.0000 C   0  0  0  0  0  0  0  0  0  0  0  0
    7.1962    1.5530    0.0000 C   0  0  0  0  0  0  0  0  0  0  0  0
    6.3301    1.0530    0.0000 C   0  0  0  0  0  0  0  0  0  0  0  0
    5.4641   -0.4470    0.0000 C   0  0  0  0  0  0  0  0  0  0  0  0
    4.5981    0.0530    0.0000 C   0  0  0  0  0  0  0  0  0  0  0  0
    3.7320   -0.4470    0.0000 C   0  0  0  0  0  0  0  0  0  0  0  0
    2.8660    0.0530    0.0000 C   0  0  0  0  0  0  0  0  0  0  0  0
    3.7320   -1.4470    0.0000 C   0  0  0  0  0  0  0  0  0  0  0  0
    2.0000   -0.4470    0.0000 C   0  0  0  0  0  0  0  0  0  0  0  0
    2.8660   -1.9470    0.0000 C   0  0  0  0  0  0  0  0  0  0  0  0
    2.0000   -1.4470    0.0000 C   0  0  0  0  0  0  0  0  0  0  0  0
    8.7574   -0.8187    0.0000 H   0  0  0  0  0  0  0  0  0  0  0  0
    9.5458   -0.5610    0.0000 H   0  0  0  0  0  0  0  0  0  0  0  0
    7.1962   -1.0670    0.0000 H   0  0  0  0  0  0  0  0  0  0  0  0
    9.2010    1.9470    0.0000 H   0  0  0  0  0  0  0  0  0  0  0  0
    7.1962    2.1730    0.0000 H   0  0  0  0  0  0  0  0  0  0  0  0
    5.7932    1.3630    0.0000 H   0  0  0  0  0  0  0  0  0  0  0  0
    5.4641   -1.0670    0.0000 H   0  0  0  0  0  0  0  0  0  0  0  0
    4.5981    0.6730    0.0000 H   0  0  0  0  0  0  0  0  0  0  0  0
    2.8660    0.6730    0.0000 H   0  0  0  0  0  0  0  0  0  0  0  0
    4.2690   -1.7570    0.0000 H   0  0  0  0  0  0  0  0  0  0  0  0
    1.4631   -0.1370    0.0000 H   0  0  0  0  0  0  0  0  0  0  0  0
    2.8660   -2.5670    0.0000 H   0  0  0  0  0  0  0  0  0  0  0  0
    1.4631   -1.7570    0.0000 H   0  0  0  0  0  0  0  0  0  0  0  0
  1  7  2  0  0  0  0
  2  5  1  0  0  0  0
  2  7  1  0  0  0  0
  2 22  1  0  0  0  0
  3  4  1  0  0  0  0
  3  5  2  0  0  0  0
  3  6  1  0  0  0  0
  4  7  1  0  0  0  0
  4 19  1  0  0  0  0
  4 20  1  0  0  0  0
  5  9  1  0  0  0  0
  6  8  2  0  0  0  0
  6 21  1  0  0  0  0
  8 10  1  0  0  0  0
  8 11  1  0  0  0  0
  9 10  2  0  0  0  0
  9 23  1  0  0  0  0
 10 24  1  0  0  0  0
 11 12  2  0  0  0  0
 11 25  1  0  0  0  0
 12 13  1  0  0  0  0
 12 26  1  0  0  0  0
 13 14  2  0  0  0  0
 13 15  1  0  0  0  0
 14 16  1  0  0  0  0
 14 27  1  0  0  0  0
 15 17  2  0  0  0  0
 15 28  1  0  0  0  0
 16 18  2  0  0  0  0
 16 29  1  0  0  0  0
 17 18  1  0  0  0  0
 17 30  1  0  0  0  0
 18 31  1  0  0  0  0
M  END
> <PUBCHEM_COMPOUND_CID>
56707900

> <PUBCHEM_COMPOUND_CANONICALIZED>
1

> <PUBCHEM_CACTVS_COMPLEXITY>
330

> <PUBCHEM_CACTVS_HBOND_ACCEPTOR>
1

> <PUBCHEM_CACTVS_HBOND_DONOR>
1

> <PUBCHEM_CACTVS_ROTATABLE_BOND>
2

> <PUBCHEM_CACTVS_SUBSKEYS>
AAADccB6IAAAAAAAAAAAAAAAAAAAAWAAAAAwYAAAAAAAAFgBQAAAHgAQAAAADAiBmAAwwILAAACIAiVSUACCAAAhAgAIiAEAZIgIIDLAlZGEIAhglADIyAcciMCOCAACAAACAAAQAAQAAAQAAAAAAAAAAA==

> <PUBCHEM_IUPAC_OPENEYE_NAME>
5-[(E)-styryl]indolin-2-one

> <PUBCHEM_IUPAC_CAS_NAME>
5-[(E)-2-phenylethenyl]-1,3-dihydroindol-2-one

> <PUBCHEM_IUPAC_NAME>
5-[(E)-2-phenylethenyl]-1,3-dihydroindol-2-one

> <PUBCHEM_IUPAC_SYSTEMATIC_NAME>
5-[(E)-2-phenylethenyl]-1,3-dihydroindol-2-one

> <PUBCHEM_IUPAC_TRADITIONAL_NAME>
5-[(E)-styryl]oxindole

> <PUBCHEM_IUPAC_INCHI>
InChI=1S/C16H13NO/c18-16-11-14-10-13(8-9-15(14)17-16)7-6-12-4-2-1-3-5-12/h1-10H,11H2,(H,17,18)/b7-6+

> <PUBCHEM_IUPAC_INCHIKEY>
BIZQAGRMANTINP-VOTSOKGWSA-N

> <PUBCHEM_XLOGP3>
3.4

> <PUBCHEM_EXACT_MASS>
235.099714

> <PUBCHEM_MOLECULAR_FORMULA>
C16H13NO

> <PUBCHEM_MOLECULAR_WEIGHT>
235.28052

> <PUBCHEM_OPENEYE_CAN_SMILES>
C1C2=C(C=CC(=C2)C=CC3=CC=CC=C3)NC1=O

> <PUBCHEM_OPENEYE_ISO_SMILES>
C1C2=C(C=CC(=C2)/C=C/C3=CC=CC=C3)NC1=O

> <PUBCHEM_CACTVS_TPSA>
29.1

> <PUBCHEM_MONOISOTOPIC_WEIGHT>
235.099714

> <PUBCHEM_TOTAL_CHARGE>
0

> <PUBCHEM_HEAVY_ATOM_COUNT>
18

> <PUBCHEM_ATOM_DEF_STEREO_COUNT>
0

> <PUBCHEM_ATOM_UDEF_STEREO_COUNT>
0

> <PUBCHEM_BOND_DEF_STEREO_COUNT>
1

> <PUBCHEM_BOND_UDEF_STEREO_COUNT>
0

> <PUBCHEM_ISOTOPIC_ATOM_COUNT>
0

> <PUBCHEM_COMPONENT_COUNT>
1

> <PUBCHEM_CACTVS_TAUTO_COUNT>
6

> <PUBCHEM_COORDINATE_TYPE>
1
5
255

> <PUBCHEM_BONDANNOTATIONS>
13  14  8
13  15  8
14  16  8
15  17  8
16  18  8
17  18  8
3  5  8
3  6  8
5  9  8
6  8  8
8  10  8
9  10  8

$$$$
56719577
  -OEChem-11301218112D

 32 33  0     0  0  0  0  0  0999 V2000
    3.7320    1.7500    0.0000 Cl  0  0  0  0  0  0  0  0  0  0  0  0
    2.0000   -2.2500    0.0000 O   0  0  0  0  0  0  0  0  0  0  0  0
    3.7320   -2.2500    0.0000 N   0  0  0  0  0  0  0  0  0  0  0  0
    4.5981   -0.7500    0.0000 C   0  0  0  0  0  0  0  0  0  0  0  0
    5.4641    0.7500    0.0000 C   0  0  0  0  0  0  0  0  0  0  0  0
    4.5981    0.2500    0.0000 C   0  0  0  0  0  0  0  0  0  0  0  0
    3.7320   -1.2500    0.0000 C   0  0  0  0  0  0  0  0  0  0  0  0
    5.4641    1.7500    0.0000 C   0  0  0  0  0  0  0  0  0  0  0  0
    5.4641   -1.2500    0.0000 C   0  0  0  0  0  0  0  0  0  0  0  0
    6.3301    0.2500    0.0000 C   0  0  0  0  0  0  0  0  0  0  0  0
    6.3301   -0.7500    0.0000 C   0  0  0  0  0  0  0  0  0  0  0  0
    4.5981    2.2500    0.0000 C   0  0  0  0  0  0  0  0  0  0  0  0
    6.3301    2.2500    0.0000 C   0  0  0  0  0  0  0  0  0  0  0  0
    4.5981    3.2500    0.0000 C   0  0  0  0  0  0  0  0  0  0  0  0
    6.3301    3.2500    0.0000 C   0  0  0  0  0  0  0  0  0  0  0  0
    5.4641    3.7500    0.0000 C   0  0  0  0  0  0  0  0  0  0  0  0
    2.8660   -2.7500    0.0000 C   0  0  0  0  0  0  0  0  0  0  0  0
    2.8660   -3.7500    0.0000 C   0  0  0  0  0  0  0  0  0  0  0  0
    4.0611    0.5600    0.0000 H   0  0  0  0  0  0  0  0  0  0  0  0
    3.5200   -0.6674    0.0000 H   0  0  0  0  0  0  0  0  0  0  0  0
    3.1215   -1.3577    0.0000 H   0  0  0  0  0  0  0  0  0  0  0  0
    5.4641   -1.8700    0.0000 H   0  0  0  0  0  0  0  0  0  0  0  0
    6.8671    0.5600    0.0000 H   0  0  0  0  0  0  0  0  0  0  0  0
    6.8671   -1.0600    0.0000 H   0  0  0  0  0  0  0  0  0  0  0  0
    6.8671    1.9400    0.0000 H   0  0  0  0  0  0  0  0  0  0  0  0
    4.2690   -2.5600    0.0000 H   0  0  0  0  0  0  0  0  0  0  0  0
    4.0611    3.5600    0.0000 H   0  0  0  0  0  0  0  0  0  0  0  0
    6.8671    3.5600    0.0000 H   0  0  0  0  0  0  0  0  0  0  0  0
    5.4641    4.3700    0.0000 H   0  0  0  0  0  0  0  0  0  0  0  0
    2.2460   -3.7500    0.0000 H   0  0  0  0  0  0  0  0  0  0  0  0
    2.8660   -4.3700    0.0000 H   0  0  0  0  0  0  0  0  0  0  0  0
    3.4860   -3.7500    0.0000 H   0  0  0  0  0  0  0  0  0  0  0  0
  1 12  1  0  0  0  0
  2 17  2  0  0  0  0
  3  7  1  0  0  0  0
  3 17  1  0  0  0  0
  3 26  1  0  0  0  0
  4  6  2  0  0  0  0
  4  7  1  0  0  0  0
  4  9  1  0  0  0  0
  5  6  1  0  0  0  0
  5  8  1  0  0  0  0
  5 10  2  0  0  0  0
  6 19  1  0  0  0  0
  7 20  1  0  0  0  0
  7 21  1  0  0  0  0
  8 12  1  0  0  0  0
  8 13  2  0  0  0  0
  9 11  2  0  0  0  0
  9 22  1  0  0  0  0
 10 11  1  0  0  0  0
 10 23  1  0  0  0  0
 11 24  1  0  0  0  0
 12 14  2  0  0  0  0
 13 15  1  0  0  0  0
 13 25  1  0  0  0  0
 14 16  1  0  0  0  0
 14 27  1  0  0  0  0
 15 16  2  0  0  0  0
 15 28  1  0  0  0  0
 16 29  1  0  0  0  0
 17 18  1  0  0  0  0
 18 30  1  0  0  0  0
 18 31  1  0  0  0  0
 18 32  1  0  0  0  0
M  END
> <PUBCHEM_COMPOUND_CID>
56719577

> <PUBCHEM_COMPOUND_CANONICALIZED>
1

> <PUBCHEM_CACTVS_COMPLEXITY>
282

> <PUBCHEM_CACTVS_HBOND_ACCEPTOR>
1

> <PUBCHEM_CACTVS_HBOND_DONOR>
1

> <PUBCHEM_CACTVS_ROTATABLE_BOND>
3

> <PUBCHEM_CACTVS_SUBSKEYS>
AAADccByIAAEAAAAAAAAAAAAAAAAAAAAAAAwYAAAAAAAAAABQAAAHgIQAAAADALBmCQyAILAAACIAiFSEACCAAAgBQAIiIAIBogIICKBkxGEIAhglgCIiAcQgMAOgAACAAABAAAAAAQAAAIAAAAAAAAAAA==

> <PUBCHEM_IUPAC_OPENEYE_NAME>
N-[[3-(2-chlorophenyl)phenyl]methyl]acetamide

> <PUBCHEM_IUPAC_CAS_NAME>
N-[[3-(2-chlorophenyl)phenyl]methyl]acetamide

> <PUBCHEM_IUPAC_NAME>
N-[[3-(2-chlorophenyl)phenyl]methyl]acetamide

> <PUBCHEM_IUPAC_SYSTEMATIC_NAME>
N-[[3-(2-chlorophenyl)phenyl]methyl]ethanamide

> <PUBCHEM_IUPAC_TRADITIONAL_NAME>
N-[3-(2-chlorophenyl)benzyl]acetamide

> <PUBCHEM_IUPAC_INCHI>
InChI=1S/C15H14ClNO/c1-11(18)17-10-12-5-4-6-13(9-12)14-7-2-3-8-15(14)16/h2-9H,10H2,1H3,(H,17,18)

> <PUBCHEM_IUPAC_INCHIKEY>
LUGFZHFJVXRPET-UHFFFAOYSA-N

> <PUBCHEM_XLOGP3>
3.6

> <PUBCHEM_EXACT_MASS>
259.076392

> <PUBCHEM_MOLECULAR_FORMULA>
C15H14ClNO

> <PUBCHEM_MOLECULAR_WEIGHT>
259.73076

> <PUBCHEM_OPENEYE_CAN_SMILES>
CC(=O)NCC1=CC=CC(=C1)C2=CC=CC=C2Cl

> <PUBCHEM_OPENEYE_ISO_SMILES>
CC(=O)NCC1=CC=CC(=C1)C2=CC=CC=C2Cl

> <PUBCHEM_CACTVS_TPSA>
29.1

> <PUBCHEM_MONOISOTOPIC_WEIGHT>
259.076392

> <PUBCHEM_TOTAL_CHARGE>
0

> <PUBCHEM_HEAVY_ATOM_COUNT>
18

> <PUBCHEM_ATOM_DEF_STEREO_COUNT>
0

> <PUBCHEM_ATOM_UDEF_STEREO_COUNT>
0

> <PUBCHEM_BOND_DEF_STEREO_COUNT>
0

> <PUBCHEM_BOND_UDEF_STEREO_COUNT>
0

> <PUBCHEM_ISOTOPIC_ATOM_COUNT>
0

> <PUBCHEM_COMPONENT_COUNT>
1

> <PUBCHEM_CACTVS_TAUTO_COUNT>
2

> <PUBCHEM_COORDINATE_TYPE>
1
5
255

> <PUBCHEM_BONDANNOTATIONS>
10  11  8
12  14  8
13  15  8
14  16  8
15  16  8
4  6  8
4  9  8
5  10  8
5  6  8
8  12  8
8  13  8
9  11  8

$$$$
56720747
  -OEChem-11301218112D

 30 31  0     0  0  0  0  0  0999 V2000
    8.9446   -1.8446    0.0000 O   0  0  0  0  0  0  0  0  0  0  0  0
    8.9561    1.2246    0.0000 N   0  0  0  0  0  0  0  0  0  0  0  0
    9.8622   -0.3308    0.0000 N   0  0  0  0  0  0  0  0  0  0  0  0
    6.3301   -0.3100    0.0000 C   0  0  0  0  0  0  0  0  0  0  0  0
    3.7320   -0.8100    0.0000 C   0  0  0  0  0  0  0  0  0  0  0  0
    8.0622   -0.3100    0.0000 C   0  0  0  0  0  0  0  0  0  0  0  0
    8.0622    0.6900    0.0000 C   0  0  0  0  0  0  0  0  0  0  0  0
    2.8660   -0.3100    0.0000 C   0  0  0  0  0  0  0  0  0  0  0  0
    7.1962   -0.8100    0.0000 C   0  0  0  0  0  0  0  0  0  0  0  0
    5.4641   -0.8100    0.0000 C   0  0  0  0  0  0  0  0  0  0  0  0
    4.5981   -0.3100    0.0000 C   0  0  0  0  0  0  0  0  0  0  0  0
    6.3301    0.6900    0.0000 C   0  0  0  0  0  0  0  0  0  0  0  0
    7.1962    1.1900    0.0000 C   0  0  0  0  0  0  0  0  0  0  0  0
    2.0000   -0.8100    0.0000 C   0  0  0  0  0  0  0  0  0  0  0  0
    8.9561   -0.8447    0.0000 C   0  0  0  0  0  0  0  0  0  0  0  0
    9.8622    0.7108    0.0000 C   0  0  0  0  0  0  0  0  0  0  0  0
    3.3335   -1.2850    0.0000 H   0  0  0  0  0  0  0  0  0  0  0  0
    4.1306   -1.2850    0.0000 H   0  0  0  0  0  0  0  0  0  0  0  0
    3.2646    0.1649    0.0000 H   0  0  0  0  0  0  0  0  0  0  0  0
    2.4675    0.1649    0.0000 H   0  0  0  0  0  0  0  0  0  0  0  0
    7.1962   -1.4300    0.0000 H   0  0  0  0  0  0  0  0  0  0  0  0
    5.4641   -1.4300    0.0000 H   0  0  0  0  0  0  0  0  0  0  0  0
    4.5981    0.3100    0.0000 H   0  0  0  0  0  0  0  0  0  0  0  0
    5.7932    1.0000    0.0000 H   0  0  0  0  0  0  0  0  0  0  0  0
    7.1962    1.8100    0.0000 H   0  0  0  0  0  0  0  0  0  0  0  0
    8.9490    1.8446    0.0000 H   0  0  0  0  0  0  0  0  0  0  0  0
    1.6900   -0.2731    0.0000 H   0  0  0  0  0  0  0  0  0  0  0  0
    1.4631   -1.1200    0.0000 H   0  0  0  0  0  0  0  0  0  0  0  0
    2.3100   -1.3470    0.0000 H   0  0  0  0  0  0  0  0  0  0  0  0
   10.3979    1.0229    0.0000 H   0  0  0  0  0  0  0  0  0  0  0  0
  1 15  2  0  0  0  0
  2  7  1  0  0  0  0
  2 16  1  0  0  0  0
  2 26  1  0  0  0  0
  3 15  1  0  0  0  0
  3 16  2  0  0  0  0
  4  9  2  0  0  0  0
  4 10  1  0  0  0  0
  4 12  1  0  0  0  0
  5  8  1  0  0  0  0
  5 11  1  0  0  0  0
  5 17  1  0  0  0  0
  5 18  1  0  0  0  0
  6  7  2  0  0  0  0
  6  9  1  0  0  0  0
  6 15  1  0  0  0  0
  7 13  1  0  0  0  0
  8 14  1  0  0  0  0
  8 19  1  0  0  0  0
  8 20  1  0  0  0  0
  9 21  1  0  0  0  0
 10 11  2  0  0  0  0
 10 22  1  0  0  0  0
 11 23  1  0  0  0  0
 12 13  2  0  0  0  0
 12 24  1  0  0  0  0
 13 25  1  0  0  0  0
 14 27  1  0  0  0  0
 14 28  1  0  0  0  0
 14 29  1  0  0  0  0
 16 30  1  0  0  0  0
M  END
> <PUBCHEM_COMPOUND_CID>
56720747

> <PUBCHEM_COMPOUND_CANONICALIZED>
1

> <PUBCHEM_CACTVS_COMPLEXITY>
309

> <PUBCHEM_CACTVS_HBOND_ACCEPTOR>
1

> <PUBCHEM_CACTVS_HBOND_DONOR>
1

> <PUBCHEM_CACTVS_ROTATABLE_BOND>
3

> <PUBCHEM_CACTVS_SUBSKEYS>
AAADccBzIAAAAAAAAAAAAAAAAAAAAAAAAAAwQAAAAAAAAACBAAAAHgAQAAAADAiBmAQzwILAAACoAiVTdACCAAElAgAJiIEIZMgIIDrA3ZGEIYhgkABIyccYiECOCAACAAACAAAQAAQAAAQAAAAAAAAAAA==

> <PUBCHEM_IUPAC_OPENEYE_NAME>
6-[(E)-pent-1-enyl]-1H-quinazolin-4-one

> <PUBCHEM_IUPAC_CAS_NAME>
6-[(E)-pent-1-enyl]-1H-quinazolin-4-one

> <PUBCHEM_IUPAC_NAME>
6-[(E)-pent-1-enyl]-1H-quinazolin-4-one

> <PUBCHEM_IUPAC_SYSTEMATIC_NAME>
6-[(E)-pent-1-enyl]-1H-quinazolin-4-one

> <PUBCHEM_IUPAC_TRADITIONAL_NAME>
6-[(E)-pent-1-enyl]-1H-quinazolin-4-one

> <PUBCHEM_IUPAC_INCHI>
InChI=1S/C13H14N2O/c1-2-3-4-5-10-6-7-12-11(8-10)13(16)15-9-14-12/h4-9H,2-3H2,1H3,(H,14,15,16)/b5-4+

> <PUBCHEM_IUPAC_INCHIKEY>
BDLCBFGFMXVJBZ-SNAWJCMRSA-N

> <PUBCHEM_XLOGP3>
2.8

> <PUBCHEM_EXACT_MASS>
214.110613

> <PUBCHEM_MOLECULAR_FORMULA>
C13H14N2O

> <PUBCHEM_MOLECULAR_WEIGHT>
214.26306

> <PUBCHEM_OPENEYE_CAN_SMILES>
CCCC=CC1=CC2=C(C=C1)NC=NC2=O

> <PUBCHEM_OPENEYE_ISO_SMILES>
CCC/C=C/C1=CC2=C(C=C1)NC=NC2=O

> <PUBCHEM_CACTVS_TPSA>
41.5

> <PUBCHEM_MONOISOTOPIC_WEIGHT>
214.110613

> <PUBCHEM_TOTAL_CHARGE>
0

> <PUBCHEM_HEAVY_ATOM_COUNT>
16

> <PUBCHEM_ATOM_DEF_STEREO_COUNT>
0

> <PUBCHEM_ATOM_UDEF_STEREO_COUNT>
0

> <PUBCHEM_BOND_DEF_STEREO_COUNT>
1

> <PUBCHEM_BOND_UDEF_STEREO_COUNT>
0

> <PUBCHEM_ISOTOPIC_ATOM_COUNT>
0

> <PUBCHEM_COMPONENT_COUNT>
1

> <PUBCHEM_CACTVS_TAUTO_COUNT>
4

> <PUBCHEM_COORDINATE_TYPE>
1
5
255

> <PUBCHEM_BONDANNOTATIONS>
12  13  8
2  16  8
2  7  8
3  15  8
3  16  8
4  12  8
4  9  8
6  15  8
6  7  8
6  9  8
7  13  8

$$$$
56721632
  -OEChem-11301218112D

 32 33  0     0  0  0  0  0  0999 V2000
    7.1962    2.5000    0.0000 Cl  0  0  0  0  0  0  0  0  0  0  0  0
    3.7320    0.5000    0.0000 O   0  0  0  0  0  0  0  0  0  0  0  0
    2.8660   -1.0000    0.0000 N   0  0  0  0  0  0  0  0  0  0  0  0
    5.4641   -0.5000    0.0000 C   0  0  0  0  0  0  0  0  0  0  0  0
    4.5981   -1.0000    0.0000 C   0  0  0  0  0  0  0  0  0  0  0  0
    5.4641    0.5000    0.0000 C   0  0  0  0  0  0  0  0  0  0  0  0
    3.7320   -0.5000    0.0000 C   0  0  0  0  0  0  0  0  0  0  0  0
    6.3301   -1.0000    0.0000 C   0  0  0  0  0  0  0  0  0  0  0  0
    4.5981   -2.0000    0.0000 C   0  0  0  0  0  0  0  0  0  0  0  0
    6.3301    1.0000    0.0000 C   0  0  0  0  0  0  0  0  0  0  0  0
    4.5981    1.0000    0.0000 C   0  0  0  0  0  0  0  0  0  0  0  0
    6.3301   -2.0000    0.0000 C   0  0  0  0  0  0  0  0  0  0  0  0
    5.4641   -2.5000    0.0000 C   0  0  0  0  0  0  0  0  0  0  0  0
    6.3301    2.0000    0.0000 C   0  0  0  0  0  0  0  0  0  0  0  0
    4.5981    2.0000    0.0000 C   0  0  0  0  0  0  0  0  0  0  0  0
    2.0000   -0.5000    0.0000 C   0  0  0  0  0  0  0  0  0  0  0  0
    2.8660   -2.0000    0.0000 C   0  0  0  0  0  0  0  0  0  0  0  0
    5.4641    2.5000    0.0000 C   0  0  0  0  0  0  0  0  0  0  0  0
    6.8671   -0.6900    0.0000 H   0  0  0  0  0  0  0  0  0  0  0  0
    4.0611   -2.3100    0.0000 H   0  0  0  0  0  0  0  0  0  0  0  0
    6.8671    0.6900    0.0000 H   0  0  0  0  0  0  0  0  0  0  0  0
    4.0611    0.6900    0.0000 H   0  0  0  0  0  0  0  0  0  0  0  0
    6.8671   -2.3100    0.0000 H   0  0  0  0  0  0  0  0  0  0  0  0
    5.4641   -3.1200    0.0000 H   0  0  0  0  0  0  0  0  0  0  0  0
    4.0611    2.3100    0.0000 H   0  0  0  0  0  0  0  0  0  0  0  0
    2.3100    0.0369    0.0000 H   0  0  0  0  0  0  0  0  0  0  0  0
    1.4631   -0.1900    0.0000 H   0  0  0  0  0  0  0  0  0  0  0  0
    1.6900   -1.0369    0.0000 H   0  0  0  0  0  0  0  0  0  0  0  0
    2.2460   -2.0000    0.0000 H   0  0  0  0  0  0  0  0  0  0  0  0
    2.8660   -2.6200    0.0000 H   0  0  0  0  0  0  0  0  0  0  0  0
    3.4860   -2.0000    0.0000 H   0  0  0  0  0  0  0  0  0  0  0  0
    5.4641    3.1200    0.0000 H   0  0  0  0  0  0  0  0  0  0  0  0
  1 14  1  0  0  0  0
  2  7  2  0  0  0  0
  3  7  1  0  0  0  0
  3 16  1  0  0  0  0
  3 17  1  0  0  0  0
  4  5  1  0  0  0  0
  4  6  1  0  0  0  0
  4  8  2  0  0  0  0
  5  7  1  0  0  0  0
  5  9  2  0  0  0  0
  6 10  2  0  0  0  0
  6 11  1  0  0  0  0
  8 12  1  0  0  0  0
  8 19  1  0  0  0  0
  9 13  1  0  0  0  0
  9 20  1  0  0  0  0
 10 14  1  0  0  0  0
 10 21  1  0  0  0  0
 11 15  2  0  0  0  0
 11 22  1  0  0  0  0
 12 13  2  0  0  0  0
 12 23  1  0  0  0  0
 13 24  1  0  0  0  0
 14 18  2  0  0  0  0
 15 18  1  0  0  0  0
 15 25  1  0  0  0  0
 16 26  1  0  0  0  0
 16 27  1  0  0  0  0
 16 28  1  0  0  0  0
 17 29  1  0  0  0  0
 17 30  1  0  0  0  0
 17 31  1  0  0  0  0
 18 32  1  0  0  0  0
M  END
> <PUBCHEM_COMPOUND_CID>
56721632

> <PUBCHEM_COMPOUND_CANONICALIZED>
1

> <PUBCHEM_CACTVS_COMPLEXITY>
292

> <PUBCHEM_CACTVS_HBOND_ACCEPTOR>
1

> <PUBCHEM_CACTVS_HBOND_DONOR>
0

> <PUBCHEM_CACTVS_ROTATABLE_BOND>
2

> <PUBCHEM_CACTVS_SUBSKEYS>
AAADccByIAAEAAAAAAAAAAAAAAAAAAAAAAAwYAAAAAAAAAABQAAAHgIAAAAADAKBmCQyAIMAAACIAiFSEACCAAAkBQAIiAEIBsgIIDKBlxGEIQhgggAIiYcYiMCOgAAAIAAQAAAAAABAACAAAAAAAAAAAA==

> <PUBCHEM_IUPAC_OPENEYE_NAME>
2-(3-chlorophenyl)-N,N-dimethyl-benzamide

> <PUBCHEM_IUPAC_CAS_NAME>
2-(3-chlorophenyl)-N,N-dimethylbenzamide

> <PUBCHEM_IUPAC_NAME>
2-(3-chlorophenyl)-N,N-dimethylbenzamide

> <PUBCHEM_IUPAC_SYSTEMATIC_NAME>
2-(3-chlorophenyl)-N,N-dimethyl-benzamide

> <PUBCHEM_IUPAC_TRADITIONAL_NAME>
2-(3-chlorophenyl)-N,N-dimethyl-benzamide

> <PUBCHEM_IUPAC_INCHI>
InChI=1S/C15H14ClNO/c1-17(2)15(18)14-9-4-3-8-13(14)11-6-5-7-12(16)10-11/h3-10H,1-2H3

> <PUBCHEM_IUPAC_INCHIKEY>
HYVCXAJNXMMDSW-UHFFFAOYSA-N

> <PUBCHEM_XLOGP3>
3.9

> <PUBCHEM_EXACT_MASS>
259.076392

> <PUBCHEM_MOLECULAR_FORMULA>
C15H14ClNO

> <PUBCHEM_MOLECULAR_WEIGHT>
259.73076

> <PUBCHEM_OPENEYE_CAN_SMILES>
CN(C)C(=O)C1=CC=CC=C1C2=CC(=CC=C2)Cl

> <PUBCHEM_OPENEYE_ISO_SMILES>
CN(C)C(=O)C1=CC=CC=C1C2=CC(=CC=C2)Cl

> <PUBCHEM_CACTVS_TPSA>
20.3

> <PUBCHEM_MONOISOTOPIC_WEIGHT>
259.076392

> <PUBCHEM_TOTAL_CHARGE>
0

> <PUBCHEM_HEAVY_ATOM_COUNT>
18

> <PUBCHEM_ATOM_DEF_STEREO_COUNT>
0

> <PUBCHEM_ATOM_UDEF_STEREO_COUNT>
0

> <PUBCHEM_BOND_DEF_STEREO_COUNT>
0

> <PUBCHEM_BOND_UDEF_STEREO_COUNT>
0

> <PUBCHEM_ISOTOPIC_ATOM_COUNT>
0

> <PUBCHEM_COMPONENT_COUNT>
1

> <PUBCHEM_CACTVS_TAUTO_COUNT>
1

> <PUBCHEM_COORDINATE_TYPE>
1
5
255

> <PUBCHEM_BONDANNOTATIONS>
10  14  8
11  15  8
12  13  8
14  18  8
15  18  8
4  5  8
4  8  8
5  9  8
6  10  8
6  11  8
8  12  8
9  13  8

$$$$
