25467841
  -OEChem-12041211282D

 51 53  0     1  0  0  0  0  0999 V2000
    5.6103    1.0994    0.0000 O   0  0  0  0  0  0  0  0  0  0  0  0
    7.2566    0.5613    0.0000 N   0  0  0  0  0  0  0  0  0  0  0  0
    4.6783   -3.3616    0.0000 N   0  0  0  0  0  0  0  0  0  0  0  0
    7.5673    1.5118    0.0000 C   0  0  2  0  0  0  0  0  0  0  0  0
    6.8994    2.2561    0.0000 C   0  0  0  0  0  0  0  0  0  0  0  0
    7.2101    3.2066    0.0000 C   0  0  0  0  0  0  0  0  0  0  0  0
    8.5458    1.7180    0.0000 C   0  0  0  0  0  0  0  0  0  0  0  0
    6.5422    3.9510    0.0000 C   0  0  0  0  0  0  0  0  0  0  0  0
    8.1886    3.4129    0.0000 C   0  0  0  0  0  0  0  0  0  0  0  0
    5.9674   -0.5954    0.0000 C   0  0  0  0  0  0  0  0  0  0  0  0
    4.9889   -0.8016    0.0000 C   0  0  0  0  0  0  0  0  0  0  0  0
    6.2781    0.3551    0.0000 C   0  0  0  0  0  0  0  0  0  0  0  0
    4.6783   -1.7522    0.0000 C   0  0  0  0  0  0  0  0  0  0  0  0
    3.7320   -2.0569    0.0000 C   0  0  0  0  0  0  0  0  0  0  0  0
    9.2136    0.9737    0.0000 C   0  0  0  0  0  0  0  0  0  0  0  0
    8.8564    2.6686    0.0000 C   0  0  0  0  0  0  0  0  0  0  0  0
    3.7320   -3.0569    0.0000 C   0  0  0  0  0  0  0  0  0  0  0  0
    5.2619   -2.5569    0.0000 C   0  0  0  0  0  0  0  0  0  0  0  0
    2.8660   -1.5569    0.0000 C   0  0  0  0  0  0  0  0  0  0  0  0
   10.1921    1.1800    0.0000 C   0  0  0  0  0  0  0  0  0  0  0  0
    9.8349    2.8748    0.0000 C   0  0  0  0  0  0  0  0  0  0  0  0
    2.8660   -3.5569    0.0000 C   0  0  0  0  0  0  0  0  0  0  0  0
   10.5028    2.1305    0.0000 C   0  0  0  0  0  0  0  0  0  0  0  0
    2.0000   -2.0569    0.0000 C   0  0  0  0  0  0  0  0  0  0  0  0
    2.0000   -3.0569    0.0000 C   0  0  0  0  0  0  0  0  0  0  0  0
    6.9606    1.3840    0.0000 H   0  0  0  0  0  0  0  0  0  0  0  0
    6.3525    2.5482    0.0000 H   0  0  0  0  0  0  0  0  0  0  0  0
    6.5169    1.7682    0.0000 H   0  0  0  0  0  0  0  0  0  0  0  0
    7.4027    3.7960    0.0000 H   0  0  0  0  0  0  0  0  0  0  0  0
    7.6707    0.0998    0.0000 H   0  0  0  0  0  0  0  0  0  0  0  0
    7.0037    4.3650    0.0000 H   0  0  0  0  0  0  0  0  0  0  0  0
    8.3164    2.8062    0.0000 H   0  0  0  0  0  0  0  0  0  0  0  0
    8.7953    3.5407    0.0000 H   0  0  0  0  0  0  0  0  0  0  0  0
    8.0607    4.0196    0.0000 H   0  0  0  0  0  0  0  0  0  0  0  0
    6.1282    4.4124    0.0000 H   0  0  0  0  0  0  0  0  0  0  0  0
    6.0808    3.5369    0.0000 H   0  0  0  0  0  0  0  0  0  0  0  0
    5.9880   -1.2151    0.0000 H   0  0  0  0  0  0  0  0  0  0  0  0
    6.5812   -0.6828    0.0000 H   0  0  0  0  0  0  0  0  0  0  0  0
    4.9684   -0.1820    0.0000 H   0  0  0  0  0  0  0  0  0  0  0  0
    4.3751   -0.7143    0.0000 H   0  0  0  0  0  0  0  0  0  0  0  0
    9.0210    0.3844    0.0000 H   0  0  0  0  0  0  0  0  0  0  0  0
    8.4424    3.1300    0.0000 H   0  0  0  0  0  0  0  0  0  0  0  0
    5.8819   -2.5569    0.0000 H   0  0  0  0  0  0  0  0  0  0  0  0
    4.8709   -3.9510    0.0000 H   0  0  0  0  0  0  0  0  0  0  0  0
    2.8660   -0.9369    0.0000 H   0  0  0  0  0  0  0  0  0  0  0  0
   10.6062    0.7185    0.0000 H   0  0  0  0  0  0  0  0  0  0  0  0
   10.0276    3.4641    0.0000 H   0  0  0  0  0  0  0  0  0  0  0  0
    2.8660   -4.1769    0.0000 H   0  0  0  0  0  0  0  0  0  0  0  0
   11.1095    2.2583    0.0000 H   0  0  0  0  0  0  0  0  0  0  0  0
    1.4631   -1.7469    0.0000 H   0  0  0  0  0  0  0  0  0  0  0  0
    1.4631   -3.3669    0.0000 H   0  0  0  0  0  0  0  0  0  0  0  0
  1 12  2  0  0  0  0
  4  2  1  6  0  0  0
  2 12  1  0  0  0  0
  2 30  1  0  0  0  0
  3 17  1  0  0  0  0
  3 18  1  0  0  0  0
  3 44  1  0  0  0  0
  4  5  1  0  0  0  0
  4  7  1  0  0  0  0
  4 26  1  0  0  0  0
  5  6  1  0  0  0  0
  5 27  1  0  0  0  0
  5 28  1  0  0  0  0
  6  8  1  0  0  0  0
  6  9  1  0  0  0  0
  6 29  1  0  0  0  0
  7 15  2  0  0  0  0
  7 16  1  0  0  0  0
  8 31  1  0  0  0  0
  8 35  1  0  0  0  0
  8 36  1  0  0  0  0
  9 32  1  0  0  0  0
  9 33  1  0  0  0  0
  9 34  1  0  0  0  0
 10 11  1  0  0  0  0
 10 12  1  0  0  0  0
 10 37  1  0  0  0  0
 10 38  1  0  0  0  0
 11 13  1  0  0  0  0
 11 39  1  0  0  0  0
 11 40  1  0  0  0  0
 13 14  1  0  0  0  0
 13 18  2  0  0  0  0
 14 17  1  0  0  0  0
 14 19  2  0  0  0  0
 15 20  1  0  0  0  0
 15 41  1  0  0  0  0
 16 21  2  0  0  0  0
 16 42  1  0  0  0  0
 17 22  2  0  0  0  0
 18 43  1  0  0  0  0
 19 24  1  0  0  0  0
 19 45  1  0  0  0  0
 20 23  2  0  0  0  0
 20 46  1  0  0  0  0
 21 23  1  0  0  0  0
 21 47  1  0  0  0  0
 22 25  1  0  0  0  0
 22 48  1  0  0  0  0
 23 49  1  0  0  0  0
 24 25  2  0  0  0  0
 24 50  1  0  0  0  0
 25 51  1  0  0  0  0
M  END
> <PUBCHEM_COMPOUND_CID>
25467841

> <PUBCHEM_COMPOUND_CANONICALIZED>
1

> <PUBCHEM_CACTVS_COMPLEXITY>
416

> <PUBCHEM_CACTVS_HBOND_ACCEPTOR>
1

> <PUBCHEM_CACTVS_HBOND_DONOR>
2

> <PUBCHEM_CACTVS_ROTATABLE_BOND>
7

> <PUBCHEM_CACTVS_SUBSKEYS>
AAADceB7IAAAAAAAAAAAAAAAAAAAAWAAAAAwYAAAAAAAAFgB9AAAHgAQAAAADSjBngQ+wPLJkACoAzV3VACCgCAxAiAI2aE4ZJgIIPLAkZGEIAhglgDIyAcYicCOgAAAAAACAAAAAAAAAAQAAAAAAAAAAA==

> <PUBCHEM_IUPAC_OPENEYE_NAME>
3-(1H-indol-3-yl)-N-[(1R)-3-methyl-1-phenyl-butyl]propanamide

> <PUBCHEM_IUPAC_CAS_NAME>
3-(1H-indol-3-yl)-N-[(1R)-3-methyl-1-phenylbutyl]propanamide

> <PUBCHEM_IUPAC_NAME>
3-(1H-indol-3-yl)-N-[(1R)-3-methyl-1-phenylbutyl]propanamide

> <PUBCHEM_IUPAC_SYSTEMATIC_NAME>
3-(1H-indol-3-yl)-N-[(1R)-3-methyl-1-phenyl-butyl]propanamide

> <PUBCHEM_IUPAC_TRADITIONAL_NAME>
3-(1H-indol-3-yl)-N-[(1R)-3-methyl-1-phenyl-butyl]propionamide

> <PUBCHEM_IUPAC_INCHI>
InChI=1S/C22H26N2O/c1-16(2)14-21(17-8-4-3-5-9-17)24-22(25)13-12-18-15-23-20-11-7-6-10-19(18)20/h3-11,15-16,21,23H,12-14H2,1-2H3,(H,24,25)/t21-/m1/s1

> <PUBCHEM_IUPAC_INCHIKEY>
YSMAPFHGSWGHFZ-OAQYLSRUSA-N

> <PUBCHEM_XLOGP3>
4.7

> <PUBCHEM_EXACT_MASS>
334.204513

> <PUBCHEM_MOLECULAR_FORMULA>
C22H26N2O

> <PUBCHEM_MOLECULAR_WEIGHT>
334.45464

> <PUBCHEM_OPENEYE_CAN_SMILES>
CC(C)CC(C1=CC=CC=C1)NC(=O)CCC2=CNC3=CC=CC=C32

> <PUBCHEM_OPENEYE_ISO_SMILES>
CC(C)C[C@H](C1=CC=CC=C1)NC(=O)CCC2=CNC3=CC=CC=C32

> <PUBCHEM_CACTVS_TPSA>
44.9

> <PUBCHEM_MONOISOTOPIC_WEIGHT>
334.204513

> <PUBCHEM_TOTAL_CHARGE>
0

> <PUBCHEM_HEAVY_ATOM_COUNT>
25

> <PUBCHEM_ATOM_DEF_STEREO_COUNT>
1

> <PUBCHEM_ATOM_UDEF_STEREO_COUNT>
0

> <PUBCHEM_BOND_DEF_STEREO_COUNT>
0

> <PUBCHEM_BOND_UDEF_STEREO_COUNT>
0

> <PUBCHEM_ISOTOPIC_ATOM_COUNT>
0

> <PUBCHEM_COMPONENT_COUNT>
1

> <PUBCHEM_CACTVS_TAUTO_COUNT>
2

> <PUBCHEM_COORDINATE_TYPE>
1
5
255

> <PUBCHEM_BONDANNOTATIONS>
13  14  8
13  18  8
14  17  8
14  19  8
15  20  8
16  21  8
17  22  8
19  24  8
4  2  6
20  23  8
21  23  8
22  25  8
24  25  8
3  17  8
3  18  8
7  15  8
7  16  8

$$$$
25467842
  -OEChem-12041211282D

 51 53  0     1  0  0  0  0  0999 V2000
    5.6103    1.0994    0.0000 O   0  0  0  0  0  0  0  0  0  0  0  0
    7.2566    0.5613    0.0000 N   0  0  0  0  0  0  0  0  0  0  0  0
    4.6783   -3.3616    0.0000 N   0  0  0  0  0  0  0  0  0  0  0  0
    7.5673    1.5118    0.0000 C   0  0  1  0  0  0  0  0  0  0  0  0
    6.8994    2.2561    0.0000 C   0  0  0  0  0  0  0  0  0  0  0  0
    7.2101    3.2066    0.0000 C   0  0  0  0  0  0  0  0  0  0  0  0
    8.5458    1.7180    0.0000 C   0  0  0  0  0  0  0  0  0  0  0  0
    6.5422    3.9510    0.0000 C   0  0  0  0  0  0  0  0  0  0  0  0
    8.1886    3.4129    0.0000 C   0  0  0  0  0  0  0  0  0  0  0  0
    5.9674   -0.5954    0.0000 C   0  0  0  0  0  0  0  0  0  0  0  0
    4.9889   -0.8016    0.0000 C   0  0  0  0  0  0  0  0  0  0  0  0
    6.2781    0.3551    0.0000 C   0  0  0  0  0  0  0  0  0  0  0  0
    4.6783   -1.7522    0.0000 C   0  0  0  0  0  0  0  0  0  0  0  0
    3.7320   -2.0569    0.0000 C   0  0  0  0  0  0  0  0  0  0  0  0
    9.2136    0.9737    0.0000 C   0  0  0  0  0  0  0  0  0  0  0  0
    8.8564    2.6686    0.0000 C   0  0  0  0  0  0  0  0  0  0  0  0
    3.7320   -3.0569    0.0000 C   0  0  0  0  0  0  0  0  0  0  0  0
    5.2619   -2.5569    0.0000 C   0  0  0  0  0  0  0  0  0  0  0  0
    2.8660   -1.5569    0.0000 C   0  0  0  0  0  0  0  0  0  0  0  0
   10.1921    1.1800    0.0000 C   0  0  0  0  0  0  0  0  0  0  0  0
    9.8349    2.8748    0.0000 C   0  0  0  0  0  0  0  0  0  0  0  0
    2.8660   -3.5569    0.0000 C   0  0  0  0  0  0  0  0  0  0  0  0
   10.5028    2.1305    0.0000 C   0  0  0  0  0  0  0  0  0  0  0  0
    2.0000   -2.0569    0.0000 C   0  0  0  0  0  0  0  0  0  0  0  0
    2.0000   -3.0569    0.0000 C   0  0  0  0  0  0  0  0  0  0  0  0
    6.9606    1.3840    0.0000 H   0  0  0  0  0  0  0  0  0  0  0  0
    6.3525    2.5482    0.0000 H   0  0  0  0  0  0  0  0  0  0  0  0
    6.5169    1.7682    0.0000 H   0  0  0  0  0  0  0  0  0  0  0  0
    7.4027    3.7960    0.0000 H   0  0  0  0  0  0  0  0  0  0  0  0
    7.6707    0.0998    0.0000 H   0  0  0  0  0  0  0  0  0  0  0  0
    7.0037    4.3650    0.0000 H   0  0  0  0  0  0  0  0  0  0  0  0
    8.3164    2.8062    0.0000 H   0  0  0  0  0  0  0  0  0  0  0  0
    8.7953    3.5407    0.0000 H   0  0  0  0  0  0  0  0  0  0  0  0
    8.0607    4.0196    0.0000 H   0  0  0  0  0  0  0  0  0  0  0  0
    6.1282    4.4124    0.0000 H   0  0  0  0  0  0  0  0  0  0  0  0
    6.0808    3.5369    0.0000 H   0  0  0  0  0  0  0  0  0  0  0  0
    5.9880   -1.2151    0.0000 H   0  0  0  0  0  0  0  0  0  0  0  0
    6.5812   -0.6828    0.0000 H   0  0  0  0  0  0  0  0  0  0  0  0
    4.9684   -0.1820    0.0000 H   0  0  0  0  0  0  0  0  0  0  0  0
    4.3751   -0.7143    0.0000 H   0  0  0  0  0  0  0  0  0  0  0  0
    9.0210    0.3844    0.0000 H   0  0  0  0  0  0  0  0  0  0  0  0
    8.4424    3.1300    0.0000 H   0  0  0  0  0  0  0  0  0  0  0  0
    5.8819   -2.5569    0.0000 H   0  0  0  0  0  0  0  0  0  0  0  0
    4.8709   -3.9510    0.0000 H   0  0  0  0  0  0  0  0  0  0  0  0
    2.8660   -0.9369    0.0000 H   0  0  0  0  0  0  0  0  0  0  0  0
   10.6062    0.7185    0.0000 H   0  0  0  0  0  0  0  0  0  0  0  0
   10.0276    3.4641    0.0000 H   0  0  0  0  0  0  0  0  0  0  0  0
    2.8660   -4.1769    0.0000 H   0  0  0  0  0  0  0  0  0  0  0  0
   11.1095    2.2583    0.0000 H   0  0  0  0  0  0  0  0  0  0  0  0
    1.4631   -1.7469    0.0000 H   0  0  0  0  0  0  0  0  0  0  0  0
    1.4631   -3.3669    0.0000 H   0  0  0  0  0  0  0  0  0  0  0  0
  1 12  2  0  0  0  0
  4  2  1  1  0  0  0
  2 12  1  0  0  0  0
  2 30  1  0  0  0  0
  3 17  1  0  0  0  0
  3 18  1  0  0  0  0
  3 44  1  0  0  0  0
  4  5  1  0  0  0  0
  4  7  1  0  0  0  0
  4 26  1  0  0  0  0
  5  6  1  0  0  0  0
  5 27  1  0  0  0  0
  5 28  1  0  0  0  0
  6  8  1  0  0  0  0
  6  9  1  0  0  0  0
  6 29  1  0  0  0  0
  7 15  2  0  0  0  0
  7 16  1  0  0  0  0
  8 31  1  0  0  0  0
  8 35  1  0  0  0  0
  8 36  1  0  0  0  0
  9 32  1  0  0  0  0
  9 33  1  0  0  0  0
  9 34  1  0  0  0  0
 10 11  1  0  0  0  0
 10 12  1  0  0  0  0
 10 37  1  0  0  0  0
 10 38  1  0  0  0  0
 11 13  1  0  0  0  0
 11 39  1  0  0  0  0
 11 40  1  0  0  0  0
 13 14  1  0  0  0  0
 13 18  2  0  0  0  0
 14 17  1  0  0  0  0
 14 19  2  0  0  0  0
 15 20  1  0  0  0  0
 15 41  1  0  0  0  0
 16 21  2  0  0  0  0
 16 42  1  0  0  0  0
 17 22  2  0  0  0  0
 18 43  1  0  0  0  0
 19 24  1  0  0  0  0
 19 45  1  0  0  0  0
 20 23  2  0  0  0  0
 20 46  1  0  0  0  0
 21 23  1  0  0  0  0
 21 47  1  0  0  0  0
 22 25  1  0  0  0  0
 22 48  1  0  0  0  0
 23 49  1  0  0  0  0
 24 25  2  0  0  0  0
 24 50  1  0  0  0  0
 25 51  1  0  0  0  0
M  END
> <PUBCHEM_COMPOUND_CID>
25467842

> <PUBCHEM_COMPOUND_CANONICALIZED>
1

> <PUBCHEM_CACTVS_COMPLEXITY>
416

> <PUBCHEM_CACTVS_HBOND_ACCEPTOR>
1

> <PUBCHEM_CACTVS_HBOND_DONOR>
2

> <PUBCHEM_CACTVS_ROTATABLE_BOND>
7

> <PUBCHEM_CACTVS_SUBSKEYS>
AAADceB7IAAAAAAAAAAAAAAAAAAAAWAAAAAwYAAAAAAAAFgB9AAAHgAQAAAADSjBngQ+wPLJkACoAzV3VACCgCAxAiAI2aE4ZJgIIPLAkZGEIAhglgDIyAcYicCOgAAAAAACAAAAAAAAAAQAAAAAAAAAAA==

> <PUBCHEM_IUPAC_OPENEYE_NAME>
3-(1H-indol-3-yl)-N-[(1S)-3-methyl-1-phenyl-butyl]propanamide

> <PUBCHEM_IUPAC_CAS_NAME>
3-(1H-indol-3-yl)-N-[(1S)-3-methyl-1-phenylbutyl]propanamide

> <PUBCHEM_IUPAC_NAME>
3-(1H-indol-3-yl)-N-[(1S)-3-methyl-1-phenylbutyl]propanamide

> <PUBCHEM_IUPAC_SYSTEMATIC_NAME>
3-(1H-indol-3-yl)-N-[(1S)-3-methyl-1-phenyl-butyl]propanamide

> <PUBCHEM_IUPAC_TRADITIONAL_NAME>
3-(1H-indol-3-yl)-N-[(1S)-3-methyl-1-phenyl-butyl]propionamide

> <PUBCHEM_IUPAC_INCHI>
InChI=1S/C22H26N2O/c1-16(2)14-21(17-8-4-3-5-9-17)24-22(25)13-12-18-15-23-20-11-7-6-10-19(18)20/h3-11,15-16,21,23H,12-14H2,1-2H3,(H,24,25)/t21-/m0/s1

> <PUBCHEM_IUPAC_INCHIKEY>
YSMAPFHGSWGHFZ-NRFANRHFSA-N

> <PUBCHEM_XLOGP3>
4.7

> <PUBCHEM_EXACT_MASS>
334.204513

> <PUBCHEM_MOLECULAR_FORMULA>
C22H26N2O

> <PUBCHEM_MOLECULAR_WEIGHT>
334.45464

> <PUBCHEM_OPENEYE_CAN_SMILES>
CC(C)CC(C1=CC=CC=C1)NC(=O)CCC2=CNC3=CC=CC=C32

> <PUBCHEM_OPENEYE_ISO_SMILES>
CC(C)C[C@@H](C1=CC=CC=C1)NC(=O)CCC2=CNC3=CC=CC=C32

> <PUBCHEM_CACTVS_TPSA>
44.9

> <PUBCHEM_MONOISOTOPIC_WEIGHT>
334.204513

> <PUBCHEM_TOTAL_CHARGE>
0

> <PUBCHEM_HEAVY_ATOM_COUNT>
25

> <PUBCHEM_ATOM_DEF_STEREO_COUNT>
1

> <PUBCHEM_ATOM_UDEF_STEREO_COUNT>
0

> <PUBCHEM_BOND_DEF_STEREO_COUNT>
0

> <PUBCHEM_BOND_UDEF_STEREO_COUNT>
0

> <PUBCHEM_ISOTOPIC_ATOM_COUNT>
0

> <PUBCHEM_COMPONENT_COUNT>
1

> <PUBCHEM_CACTVS_TAUTO_COUNT>
2

> <PUBCHEM_COORDINATE_TYPE>
1
5
255

> <PUBCHEM_BONDANNOTATIONS>
13  14  8
13  18  8
14  17  8
14  19  8
15  20  8
16  21  8
17  22  8
19  24  8
4  2  5
20  23  8
21  23  8
22  25  8
24  25  8
3  17  8
3  18  8
7  15  8
7  16  8

$$$$
25467971
  -OEChem-12041211282D

 41 42  0     0  0  0  0  0  0999 V2000
    5.6103    1.4715    0.0000 O   0  0  0  0  0  0  0  0  0  0  0  0
    7.2566    0.9335    0.0000 N   0  0  0  0  0  0  0  0  0  0  0  0
    4.6783   -2.9895    0.0000 N   0  0  0  0  0  0  0  0  0  0  0  0
    7.5673    1.8840    0.0000 C   0  0  0  0  0  0  0  0  0  0  0  0
    8.5458    2.0902    0.0000 C   0  0  0  0  0  0  0  0  0  0  0  0
    6.8994    2.6283    0.0000 C   0  0  0  0  0  0  0  0  0  0  0  0
    4.9889   -0.4295    0.0000 C   0  0  0  0  0  0  0  0  0  0  0  0
    5.9674   -0.2233    0.0000 C   0  0  0  0  0  0  0  0  0  0  0  0
    4.6783   -1.3800    0.0000 C   0  0  0  0  0  0  0  0  0  0  0  0
    3.7320   -1.6848    0.0000 C   0  0  0  0  0  0  0  0  0  0  0  0
    6.2781    0.7272    0.0000 C   0  0  0  0  0  0  0  0  0  0  0  0
    3.7320   -2.6848    0.0000 C   0  0  0  0  0  0  0  0  0  0  0  0
    8.8564    3.0407    0.0000 C   0  0  0  0  0  0  0  0  0  0  0  0
    7.2101    3.5788    0.0000 C   0  0  0  0  0  0  0  0  0  0  0  0
    5.2619   -2.1848    0.0000 C   0  0  0  0  0  0  0  0  0  0  0  0
    2.8660   -1.1848    0.0000 C   0  0  0  0  0  0  0  0  0  0  0  0
    2.8660   -3.1848    0.0000 C   0  0  0  0  0  0  0  0  0  0  0  0
    2.0000   -1.6848    0.0000 C   0  0  0  0  0  0  0  0  0  0  0  0
    2.0000   -2.6848    0.0000 C   0  0  0  0  0  0  0  0  0  0  0  0
    6.9606    1.7561    0.0000 H   0  0  0  0  0  0  0  0  0  0  0  0
    8.5663    1.4705    0.0000 H   0  0  0  0  0  0  0  0  0  0  0  0
    9.1596    2.0028    0.0000 H   0  0  0  0  0  0  0  0  0  0  0  0
    6.3525    2.9203    0.0000 H   0  0  0  0  0  0  0  0  0  0  0  0
    6.5169    2.1404    0.0000 H   0  0  0  0  0  0  0  0  0  0  0  0
    4.9684    0.1902    0.0000 H   0  0  0  0  0  0  0  0  0  0  0  0
    4.3751   -0.3421    0.0000 H   0  0  0  0  0  0  0  0  0  0  0  0
    5.9880   -0.8429    0.0000 H   0  0  0  0  0  0  0  0  0  0  0  0
    6.5812   -0.3106    0.0000 H   0  0  0  0  0  0  0  0  0  0  0  0
    7.6707    0.4720    0.0000 H   0  0  0  0  0  0  0  0  0  0  0  0
    7.7994    3.3862    0.0000 H   0  0  0  0  0  0  0  0  0  0  0  0
    9.4458    2.8481    0.0000 H   0  0  0  0  0  0  0  0  0  0  0  0
    9.0490    3.6300    0.0000 H   0  0  0  0  0  0  0  0  0  0  0  0
    8.2671    3.2333    0.0000 H   0  0  0  0  0  0  0  0  0  0  0  0
    7.4027    4.1681    0.0000 H   0  0  0  0  0  0  0  0  0  0  0  0
    6.6208    3.7714    0.0000 H   0  0  0  0  0  0  0  0  0  0  0  0
    5.8819   -2.1848    0.0000 H   0  0  0  0  0  0  0  0  0  0  0  0
    4.8709   -3.5788    0.0000 H   0  0  0  0  0  0  0  0  0  0  0  0
    2.8660   -0.5647    0.0000 H   0  0  0  0  0  0  0  0  0  0  0  0
    2.8660   -3.8048    0.0000 H   0  0  0  0  0  0  0  0  0  0  0  0
    1.4631   -1.3748    0.0000 H   0  0  0  0  0  0  0  0  0  0  0  0
    1.4631   -2.9947    0.0000 H   0  0  0  0  0  0  0  0  0  0  0  0
  1 11  2  0  0  0  0
  2  4  1  0  0  0  0
  2 11  1  0  0  0  0
  2 29  1  0  0  0  0
  3 12  1  0  0  0  0
  3 15  1  0  0  0  0
  3 37  1  0  0  0  0
  4  5  1  0  0  0  0
  4  6  1  0  0  0  0
  4 20  1  0  0  0  0
  5 13  1  0  0  0  0
  5 21  1  0  0  0  0
  5 22  1  0  0  0  0
  6 14  1  0  0  0  0
  6 23  1  0  0  0  0
  6 24  1  0  0  0  0
  7  8  1  0  0  0  0
  7  9  1  0  0  0  0
  7 25  1  0  0  0  0
  7 26  1  0  0  0  0
  8 11  1  0  0  0  0
  8 27  1  0  0  0  0
  8 28  1  0  0  0  0
  9 10  1  0  0  0  0
  9 15  2  0  0  0  0
 10 12  1  0  0  0  0
 10 16  2  0  0  0  0
 12 17  2  0  0  0  0
 13 31  1  0  0  0  0
 13 32  1  0  0  0  0
 13 33  1  0  0  0  0
 14 30  1  0  0  0  0
 14 34  1  0  0  0  0
 14 35  1  0  0  0  0
 15 36  1  0  0  0  0
 16 18  1  0  0  0  0
 16 38  1  0  0  0  0
 17 19  1  0  0  0  0
 17 39  1  0  0  0  0
 18 19  2  0  0  0  0
 18 40  1  0  0  0  0
 19 41  1  0  0  0  0
M  END
> <PUBCHEM_COMPOUND_CID>
25467971

> <PUBCHEM_COMPOUND_CANONICALIZED>
1

> <PUBCHEM_CACTVS_COMPLEXITY>
289

> <PUBCHEM_CACTVS_HBOND_ACCEPTOR>
1

> <PUBCHEM_CACTVS_HBOND_DONOR>
2

> <PUBCHEM_CACTVS_ROTATABLE_BOND>
6

> <PUBCHEM_CACTVS_SUBSKEYS>
AAADceB7IAAAAAAAAAAAAAAAAAAAAWAAAAAwAAAAAAAAAFgB8AAAHgAQAAAADCjBngQ+wPLJkACoAzV3VACCgCAxAiAI2aE4ZJgIIPLAkZGEIAhglgDIyAcYicCOgAAAAAACAAAAAAAAAAQAAAAAAAAAAA==

> <PUBCHEM_IUPAC_OPENEYE_NAME>
N-(1-ethylpropyl)-3-(1H-indol-3-yl)propanamide

> <PUBCHEM_IUPAC_CAS_NAME>
3-(1H-indol-3-yl)-N-pentan-3-ylpropanamide

> <PUBCHEM_IUPAC_NAME>
3-(1H-indol-3-yl)-N-pentan-3-ylpropanamide

> <PUBCHEM_IUPAC_SYSTEMATIC_NAME>
3-(1H-indol-3-yl)-N-pentan-3-yl-propanamide

> <PUBCHEM_IUPAC_TRADITIONAL_NAME>
N-(1-ethylpropyl)-3-(1H-indol-3-yl)propionamide

> <PUBCHEM_IUPAC_INCHI>
InChI=1S/C16H22N2O/c1-3-13(4-2)18-16(19)10-9-12-11-17-15-8-6-5-7-14(12)15/h5-8,11,13,17H,3-4,9-10H2,1-2H3,(H,18,19)

> <PUBCHEM_IUPAC_INCHIKEY>
UUDNMWBPQXIKJC-UHFFFAOYSA-N

> <PUBCHEM_XLOGP3>
3.4

> <PUBCHEM_EXACT_MASS>
258.173213

> <PUBCHEM_MOLECULAR_FORMULA>
C16H22N2O

> <PUBCHEM_MOLECULAR_WEIGHT>
258.35868

> <PUBCHEM_OPENEYE_CAN_SMILES>
CCC(CC)NC(=O)CCC1=CNC2=CC=CC=C21

> <PUBCHEM_OPENEYE_ISO_SMILES>
CCC(CC)NC(=O)CCC1=CNC2=CC=CC=C21

> <PUBCHEM_CACTVS_TPSA>
44.9

> <PUBCHEM_MONOISOTOPIC_WEIGHT>
258.173213

> <PUBCHEM_TOTAL_CHARGE>
0

> <PUBCHEM_HEAVY_ATOM_COUNT>
19

> <PUBCHEM_ATOM_DEF_STEREO_COUNT>
0

> <PUBCHEM_ATOM_UDEF_STEREO_COUNT>
0

> <PUBCHEM_BOND_DEF_STEREO_COUNT>
0

> <PUBCHEM_BOND_UDEF_STEREO_COUNT>
0

> <PUBCHEM_ISOTOPIC_ATOM_COUNT>
0

> <PUBCHEM_COMPONENT_COUNT>
1

> <PUBCHEM_CACTVS_TAUTO_COUNT>
2

> <PUBCHEM_COORDINATE_TYPE>
1
5
255

> <PUBCHEM_BONDANNOTATIONS>
10  12  8
10  16  8
12  17  8
16  18  8
17  19  8
18  19  8
3  12  8
3  15  8
9  10  8
9  15  8

$$$$
