27826924
  -OEChem-11301217412D

 54 56  0     0  0  0  0  0  0999 V2000
    5.6103    1.4173    0.0000 O   0  0  0  0  0  0  0  0  0  0  0  0
    7.2566    0.8792    0.0000 N   0  0  0  0  0  0  0  0  0  0  0  0
    4.6783   -3.0438    0.0000 N   0  0  0  0  0  0  0  0  0  0  0  0
   11.4813    2.6546    0.0000 C   0  0  0  0  0  0  0  0  0  0  0  0
   10.5028    2.4484    0.0000 C   0  0  0  0  0  0  0  0  0  0  0  0
   12.4598    2.8608    0.0000 C   0  0  0  0  0  0  0  0  0  0  0  0
   11.2751    3.6331    0.0000 C   0  0  0  0  0  0  0  0  0  0  0  0
   11.6875    1.6761    0.0000 C   0  0  0  0  0  0  0  0  0  0  0  0
    8.5458    2.0359    0.0000 C   0  0  0  0  0  0  0  0  0  0  0  0
    9.8349    3.1927    0.0000 C   0  0  0  0  0  0  0  0  0  0  0  0
   10.1921    1.4978    0.0000 C   0  0  0  0  0  0  0  0  0  0  0  0
    7.5673    1.8297    0.0000 C   0  0  0  0  0  0  0  0  0  0  0  0
    4.9889   -0.4838    0.0000 C   0  0  0  0  0  0  0  0  0  0  0  0
    4.6783   -1.4343    0.0000 C   0  0  0  0  0  0  0  0  0  0  0  0
    5.9674   -0.2776    0.0000 C   0  0  0  0  0  0  0  0  0  0  0  0
    8.8564    2.9864    0.0000 C   0  0  0  0  0  0  0  0  0  0  0  0
    9.2136    1.2916    0.0000 C   0  0  0  0  0  0  0  0  0  0  0  0
    3.7320   -1.7390    0.0000 C   0  0  0  0  0  0  0  0  0  0  0  0
    6.2781    0.6730    0.0000 C   0  0  0  0  0  0  0  0  0  0  0  0
    3.7320   -2.7390    0.0000 C   0  0  0  0  0  0  0  0  0  0  0  0
    5.2619   -2.2390    0.0000 C   0  0  0  0  0  0  0  0  0  0  0  0
    7.9244    0.1349    0.0000 C   0  0  0  0  0  0  0  0  0  0  0  0
    2.8660   -1.2390    0.0000 C   0  0  0  0  0  0  0  0  0  0  0  0
    2.8660   -3.2390    0.0000 C   0  0  0  0  0  0  0  0  0  0  0  0
    2.0000   -1.7390    0.0000 C   0  0  0  0  0  0  0  0  0  0  0  0
    2.0000   -2.7390    0.0000 C   0  0  0  0  0  0  0  0  0  0  0  0
   12.5877    2.2541    0.0000 H   0  0  0  0  0  0  0  0  0  0  0  0
   13.0665    2.9886    0.0000 H   0  0  0  0  0  0  0  0  0  0  0  0
   12.3319    3.4675    0.0000 H   0  0  0  0  0  0  0  0  0  0  0  0
   11.8817    3.7609    0.0000 H   0  0  0  0  0  0  0  0  0  0  0  0
   11.1472    4.2398    0.0000 H   0  0  0  0  0  0  0  0  0  0  0  0
   10.6684    3.5052    0.0000 H   0  0  0  0  0  0  0  0  0  0  0  0
   11.0808    1.5482    0.0000 H   0  0  0  0  0  0  0  0  0  0  0  0
   11.8154    1.0694    0.0000 H   0  0  0  0  0  0  0  0  0  0  0  0
   12.2942    1.8039    0.0000 H   0  0  0  0  0  0  0  0  0  0  0  0
   10.0276    3.7820    0.0000 H   0  0  0  0  0  0  0  0  0  0  0  0
   10.6062    1.0364    0.0000 H   0  0  0  0  0  0  0  0  0  0  0  0
    4.9684    0.1359    0.0000 H   0  0  0  0  0  0  0  0  0  0  0  0
    4.3751   -0.3964    0.0000 H   0  0  0  0  0  0  0  0  0  0  0  0
    7.5467    2.4494    0.0000 H   0  0  0  0  0  0  0  0  0  0  0  0
    6.9534    1.9170    0.0000 H   0  0  0  0  0  0  0  0  0  0  0  0
    5.9880   -0.8972    0.0000 H   0  0  0  0  0  0  0  0  0  0  0  0
    6.5812   -0.3649    0.0000 H   0  0  0  0  0  0  0  0  0  0  0  0
    8.4424    3.4479    0.0000 H   0  0  0  0  0  0  0  0  0  0  0  0
    9.0210    0.7023    0.0000 H   0  0  0  0  0  0  0  0  0  0  0  0
    5.8819   -2.2390    0.0000 H   0  0  0  0  0  0  0  0  0  0  0  0
    4.8709   -3.6331    0.0000 H   0  0  0  0  0  0  0  0  0  0  0  0
    7.4630   -0.2792    0.0000 H   0  0  0  0  0  0  0  0  0  0  0  0
    8.3385   -0.3266    0.0000 H   0  0  0  0  0  0  0  0  0  0  0  0
    8.3859    0.5489    0.0000 H   0  0  0  0  0  0  0  0  0  0  0  0
    2.8660   -0.6190    0.0000 H   0  0  0  0  0  0  0  0  0  0  0  0
    2.8660   -3.8590    0.0000 H   0  0  0  0  0  0  0  0  0  0  0  0
    1.4631   -1.4290    0.0000 H   0  0  0  0  0  0  0  0  0  0  0  0
    1.4631   -3.0490    0.0000 H   0  0  0  0  0  0  0  0  0  0  0  0
  1 19  2  0  0  0  0
  2 12  1  0  0  0  0
  2 19  1  0  0  0  0
  2 22  1  0  0  0  0
  3 20  1  0  0  0  0
  3 21  1  0  0  0  0
  3 47  1  0  0  0  0
  4  5  1  0  0  0  0
  4  6  1  0  0  0  0
  4  7  1  0  0  0  0
  4  8  1  0  0  0  0
  5 10  2  0  0  0  0
  5 11  1  0  0  0  0
  6 27  1  0  0  0  0
  6 28  1  0  0  0  0
  6 29  1  0  0  0  0
  7 30  1  0  0  0  0
  7 31  1  0  0  0  0
  7 32  1  0  0  0  0
  8 33  1  0  0  0  0
  8 34  1  0  0  0  0
  8 35  1  0  0  0  0
  9 12  1  0  0  0  0
  9 16  2  0  0  0  0
  9 17  1  0  0  0  0
 10 16  1  0  0  0  0
 10 36  1  0  0  0  0
 11 17  2  0  0  0  0
 11 37  1  0  0  0  0
 12 40  1  0  0  0  0
 12 41  1  0  0  0  0
 13 14  1  0  0  0  0
 13 15  1  0  0  0  0
 13 38  1  0  0  0  0
 13 39  1  0  0  0  0
 14 18  1  0  0  0  0
 14 21  2  0  0  0  0
 15 19  1  0  0  0  0
 15 42  1  0  0  0  0
 15 43  1  0  0  0  0
 16 44  1  0  0  0  0
 17 45  1  0  0  0  0
 18 20  1  0  0  0  0
 18 23  2  0  0  0  0
 20 24  2  0  0  0  0
 21 46  1  0  0  0  0
 22 48  1  0  0  0  0
 22 49  1  0  0  0  0
 22 50  1  0  0  0  0
 23 25  1  0  0  0  0
 23 51  1  0  0  0  0
 24 26  1  0  0  0  0
 24 52  1  0  0  0  0
 25 26  2  0  0  0  0
 25 53  1  0  0  0  0
 26 54  1  0  0  0  0
M  END
> <PUBCHEM_COMPOUND_CID>
27826924

> <PUBCHEM_COMPOUND_CANONICALIZED>
1

> <PUBCHEM_CACTVS_COMPLEXITY>
461

> <PUBCHEM_CACTVS_HBOND_ACCEPTOR>
1

> <PUBCHEM_CACTVS_HBOND_DONOR>
1

> <PUBCHEM_CACTVS_ROTATABLE_BOND>
6

> <PUBCHEM_CACTVS_SUBSKEYS>
AAADceB7IAAAAAAAAAAAAAAAAAAAAWAAAAAwYAAAAAAAAFgB9AAAHgAQAAAADgjBngQ+wPPJkACoAzV3VACCgCAxAiAI2aE4ZJgIIPLAkZGEIAhglgDIyAcYicCPwAAAAAACAACAAAAAAAQAAAAAAAAAAA==

> <PUBCHEM_IUPAC_OPENEYE_NAME>
N-[(4-tert-butylphenyl)methyl]-3-(1H-indol-3-yl)-N-methyl-propanamide

> <PUBCHEM_IUPAC_CAS_NAME>
N-[(4-tert-butylphenyl)methyl]-3-(1H-indol-3-yl)-N-methylpropanamide

> <PUBCHEM_IUPAC_NAME>
N-[(4-tert-butylphenyl)methyl]-3-(1H-indol-3-yl)-N-methylpropanamide

> <PUBCHEM_IUPAC_SYSTEMATIC_NAME>
N-[(4-tert-butylphenyl)methyl]-3-(1H-indol-3-yl)-N-methyl-propanamide

> <PUBCHEM_IUPAC_TRADITIONAL_NAME>
N-(4-tert-butylbenzyl)-3-(1H-indol-3-yl)-N-methyl-propionamide

> <PUBCHEM_IUPAC_INCHI>
InChI=1S/C23H28N2O/c1-23(2,3)19-12-9-17(10-13-19)16-25(4)22(26)14-11-18-15-24-21-8-6-5-7-20(18)21/h5-10,12-13,15,24H,11,14,16H2,1-4H3

> <PUBCHEM_IUPAC_INCHIKEY>
LCTUXMPBAQRNAE-UHFFFAOYSA-N

> <PUBCHEM_XLOGP3>
4.8

> <PUBCHEM_EXACT_MASS>
348.220164

> <PUBCHEM_MOLECULAR_FORMULA>
C23H28N2O

> <PUBCHEM_MOLECULAR_WEIGHT>
348.48122

> <PUBCHEM_OPENEYE_CAN_SMILES>
CC(C)(C)C1=CC=C(C=C1)CN(C)C(=O)CCC2=CNC3=CC=CC=C32

> <PUBCHEM_OPENEYE_ISO_SMILES>
CC(C)(C)C1=CC=C(C=C1)CN(C)C(=O)CCC2=CNC3=CC=CC=C32

> <PUBCHEM_CACTVS_TPSA>
36.1

> <PUBCHEM_MONOISOTOPIC_WEIGHT>
348.220164

> <PUBCHEM_TOTAL_CHARGE>
0

> <PUBCHEM_HEAVY_ATOM_COUNT>
26

> <PUBCHEM_ATOM_DEF_STEREO_COUNT>
0

> <PUBCHEM_ATOM_UDEF_STEREO_COUNT>
0

> <PUBCHEM_BOND_DEF_STEREO_COUNT>
0

> <PUBCHEM_BOND_UDEF_STEREO_COUNT>
0

> <PUBCHEM_ISOTOPIC_ATOM_COUNT>
0

> <PUBCHEM_COMPONENT_COUNT>
1

> <PUBCHEM_CACTVS_TAUTO_COUNT>
1

> <PUBCHEM_COORDINATE_TYPE>
1
5
255

> <PUBCHEM_BONDANNOTATIONS>
10  16  8
11  17  8
14  18  8
14  21  8
18  20  8
18  23  8
20  24  8
23  25  8
24  26  8
25  26  8
3  20  8
3  21  8
5  10  8
5  11  8
9  16  8
9  17  8

$$$$
27826931
  -OEChem-11301217412D

 51 53  0     0  0  0  0  0  0999 V2000
    6.6353   -2.0212    0.0000 O   0  0  0  0  0  0  0  0  0  0  0  0
    6.2781   -0.3264    0.0000 N   0  0  0  0  0  0  0  0  0  0  0  0
    4.6783   -4.0431    0.0000 N   0  0  0  0  0  0  0  0  0  0  0  0
    8.4993    3.6819    0.0000 C   0  0  0  0  0  0  0  0  0  0  0  0
    8.1886    2.7314    0.0000 C   0  0  0  0  0  0  0  0  0  0  0  0
    8.8099    4.6324    0.0000 C   0  0  0  0  0  0  0  0  0  0  0  0
    9.4498    3.3712    0.0000 C   0  0  0  0  0  0  0  0  0  0  0  0
    7.5487    3.9926    0.0000 C   0  0  0  0  0  0  0  0  0  0  0  0
    7.5673    0.8304    0.0000 C   0  0  0  0  0  0  0  0  0  0  0  0
    7.2101    2.5252    0.0000 C   0  0  0  0  0  0  0  0  0  0  0  0
    8.8564    1.9871    0.0000 C   0  0  0  0  0  0  0  0  0  0  0  0
    7.2566   -0.1202    0.0000 C   0  0  0  0  0  0  0  0  0  0  0  0
    6.8994    1.5747    0.0000 C   0  0  0  0  0  0  0  0  0  0  0  0
    8.5458    1.0366    0.0000 C   0  0  0  0  0  0  0  0  0  0  0  0
    4.6783   -2.4336    0.0000 C   0  0  0  0  0  0  0  0  0  0  0  0
    4.9889   -1.4831    0.0000 C   0  0  0  0  0  0  0  0  0  0  0  0
    3.7320   -2.7384    0.0000 C   0  0  0  0  0  0  0  0  0  0  0  0
    5.9674   -1.2769    0.0000 C   0  0  0  0  0  0  0  0  0  0  0  0
    3.7320   -3.7384    0.0000 C   0  0  0  0  0  0  0  0  0  0  0  0
    5.2619   -3.2384    0.0000 C   0  0  0  0  0  0  0  0  0  0  0  0
    5.6103    0.4179    0.0000 C   0  0  0  0  0  0  0  0  0  0  0  0
    2.8660   -2.2384    0.0000 C   0  0  0  0  0  0  0  0  0  0  0  0
    2.8660   -4.2384    0.0000 C   0  0  0  0  0  0  0  0  0  0  0  0
    2.0000   -2.7384    0.0000 C   0  0  0  0  0  0  0  0  0  0  0  0
    2.0000   -3.7384    0.0000 C   0  0  0  0  0  0  0  0  0  0  0  0
    9.3992    4.4398    0.0000 H   0  0  0  0  0  0  0  0  0  0  0  0
    9.0025    5.2218    0.0000 H   0  0  0  0  0  0  0  0  0  0  0  0
    8.2206    4.8250    0.0000 H   0  0  0  0  0  0  0  0  0  0  0  0
    9.2572    2.7819    0.0000 H   0  0  0  0  0  0  0  0  0  0  0  0
   10.0391    3.1786    0.0000 H   0  0  0  0  0  0  0  0  0  0  0  0
    9.6424    3.9606    0.0000 H   0  0  0  0  0  0  0  0  0  0  0  0
    7.7414    4.5819    0.0000 H   0  0  0  0  0  0  0  0  0  0  0  0
    6.9594    4.1852    0.0000 H   0  0  0  0  0  0  0  0  0  0  0  0
    7.3561    3.4032    0.0000 H   0  0  0  0  0  0  0  0  0  0  0  0
    6.7960    2.9866    0.0000 H   0  0  0  0  0  0  0  0  0  0  0  0
    9.4631    2.1150    0.0000 H   0  0  0  0  0  0  0  0  0  0  0  0
    7.2772   -0.7398    0.0000 H   0  0  0  0  0  0  0  0  0  0  0  0
    7.8704   -0.2075    0.0000 H   0  0  0  0  0  0  0  0  0  0  0  0
    6.2928    1.4468    0.0000 H   0  0  0  0  0  0  0  0  0  0  0  0
    8.9598    0.5751    0.0000 H   0  0  0  0  0  0  0  0  0  0  0  0
    4.9684   -0.8635    0.0000 H   0  0  0  0  0  0  0  0  0  0  0  0
    4.3751   -1.3958    0.0000 H   0  0  0  0  0  0  0  0  0  0  0  0
    5.8819   -3.2384    0.0000 H   0  0  0  0  0  0  0  0  0  0  0  0
    4.8709   -4.6324    0.0000 H   0  0  0  0  0  0  0  0  0  0  0  0
    6.0717    0.8320    0.0000 H   0  0  0  0  0  0  0  0  0  0  0  0
    5.1962    0.8794    0.0000 H   0  0  0  0  0  0  0  0  0  0  0  0
    5.1488    0.0039    0.0000 H   0  0  0  0  0  0  0  0  0  0  0  0
    2.8660   -1.6184    0.0000 H   0  0  0  0  0  0  0  0  0  0  0  0
    2.8660   -4.8584    0.0000 H   0  0  0  0  0  0  0  0  0  0  0  0
    1.4631   -2.4284    0.0000 H   0  0  0  0  0  0  0  0  0  0  0  0
    1.4631   -4.0484    0.0000 H   0  0  0  0  0  0  0  0  0  0  0  0
  1 18  2  0  0  0  0
  2 12  1  0  0  0  0
  2 18  1  0  0  0  0
  2 21  1  0  0  0  0
  3 19  1  0  0  0  0
  3 20  1  0  0  0  0
  3 44  1  0  0  0  0
  4  5  1  0  0  0  0
  4  6  1  0  0  0  0
  4  7  1  0  0  0  0
  4  8  1  0  0  0  0
  5 10  2  0  0  0  0
  5 11  1  0  0  0  0
  6 26  1  0  0  0  0
  6 27  1  0  0  0  0
  6 28  1  0  0  0  0
  7 29  1  0  0  0  0
  7 30  1  0  0  0  0
  7 31  1  0  0  0  0
  8 32  1  0  0  0  0
  8 33  1  0  0  0  0
  8 34  1  0  0  0  0
  9 12  1  0  0  0  0
  9 13  2  0  0  0  0
  9 14  1  0  0  0  0
 10 13  1  0  0  0  0
 10 35  1  0  0  0  0
 11 14  2  0  0  0  0
 11 36  1  0  0  0  0
 12 37  1  0  0  0  0
 12 38  1  0  0  0  0
 13 39  1  0  0  0  0
 14 40  1  0  0  0  0
 15 16  1  0  0  0  0
 15 17  1  0  0  0  0
 15 20  2  0  0  0  0
 16 18  1  0  0  0  0
 16 41  1  0  0  0  0
 16 42  1  0  0  0  0
 17 19  1  0  0  0  0
 17 22  2  0  0  0  0
 19 23  2  0  0  0  0
 20 43  1  0  0  0  0
 21 45  1  0  0  0  0
 21 46  1  0  0  0  0
 21 47  1  0  0  0  0
 22 24  1  0  0  0  0
 22 48  1  0  0  0  0
 23 25  1  0  0  0  0
 23 49  1  0  0  0  0
 24 25  2  0  0  0  0
 24 50  1  0  0  0  0
 25 51  1  0  0  0  0
M  END
> <PUBCHEM_COMPOUND_CID>
27826931

> <PUBCHEM_COMPOUND_CANONICALIZED>
1

> <PUBCHEM_CACTVS_COMPLEXITY>
447

> <PUBCHEM_CACTVS_HBOND_ACCEPTOR>
1

> <PUBCHEM_CACTVS_HBOND_DONOR>
1

> <PUBCHEM_CACTVS_ROTATABLE_BOND>
5

> <PUBCHEM_CACTVS_SUBSKEYS>
AAADceB7IAAAAAAAAAAAAAAAAAAAAWAAAAAwYAAAAAAAAFgB9AAAHgAQAAAADgjBngQ+wPPJkACoAzV3VACCgCAxAiAI2aE4ZJgIIPLAlZGEIAhglgDIyAccicCfwAAAAAACAACAAAAAAAQAAAAAAAAAAA==

> <PUBCHEM_IUPAC_OPENEYE_NAME>
N-[(4-tert-butylphenyl)methyl]-2-(1H-indol-3-yl)-N-methyl-acetamide

> <PUBCHEM_IUPAC_CAS_NAME>
N-[(4-tert-butylphenyl)methyl]-2-(1H-indol-3-yl)-N-methylacetamide

> <PUBCHEM_IUPAC_NAME>
N-[(4-tert-butylphenyl)methyl]-2-(1H-indol-3-yl)-N-methylacetamide

> <PUBCHEM_IUPAC_SYSTEMATIC_NAME>
N-[(4-tert-butylphenyl)methyl]-2-(1H-indol-3-yl)-N-methyl-ethanamide

> <PUBCHEM_IUPAC_TRADITIONAL_NAME>
N-(4-tert-butylbenzyl)-2-(1H-indol-3-yl)-N-methyl-acetamide

> <PUBCHEM_IUPAC_INCHI>
InChI=1S/C22H26N2O/c1-22(2,3)18-11-9-16(10-12-18)15-24(4)21(25)13-17-14-23-20-8-6-5-7-19(17)20/h5-12,14,23H,13,15H2,1-4H3

> <PUBCHEM_IUPAC_INCHIKEY>
FOAAJBTYMMGRAD-UHFFFAOYSA-N

> <PUBCHEM_XLOGP3>
4.5

> <PUBCHEM_EXACT_MASS>
334.204513

> <PUBCHEM_MOLECULAR_FORMULA>
C22H26N2O

> <PUBCHEM_MOLECULAR_WEIGHT>
334.45464

> <PUBCHEM_OPENEYE_CAN_SMILES>
CC(C)(C)C1=CC=C(C=C1)CN(C)C(=O)CC2=CNC3=CC=CC=C32

> <PUBCHEM_OPENEYE_ISO_SMILES>
CC(C)(C)C1=CC=C(C=C1)CN(C)C(=O)CC2=CNC3=CC=CC=C32

> <PUBCHEM_CACTVS_TPSA>
36.1

> <PUBCHEM_MONOISOTOPIC_WEIGHT>
334.204513

> <PUBCHEM_TOTAL_CHARGE>
0

> <PUBCHEM_HEAVY_ATOM_COUNT>
25

> <PUBCHEM_ATOM_DEF_STEREO_COUNT>
0

> <PUBCHEM_ATOM_UDEF_STEREO_COUNT>
0

> <PUBCHEM_BOND_DEF_STEREO_COUNT>
0

> <PUBCHEM_BOND_UDEF_STEREO_COUNT>
0

> <PUBCHEM_ISOTOPIC_ATOM_COUNT>
0

> <PUBCHEM_COMPONENT_COUNT>
1

> <PUBCHEM_CACTVS_TAUTO_COUNT>
1

> <PUBCHEM_COORDINATE_TYPE>
1
5
255

> <PUBCHEM_BONDANNOTATIONS>
10  13  8
11  14  8
15  17  8
15  20  8
17  19  8
17  22  8
19  23  8
22  24  8
23  25  8
24  25  8
3  19  8
3  20  8
5  10  8
5  11  8
9  13  8
9  14  8

$$$$
27838499
  -OEChem-11301217412D

 42 44  0     0  0  0  0  0  0999 V2000
   11.1241    3.7222    0.0000 Cl  0  0  0  0  0  0  0  0  0  0  0  0
    5.6103    0.7901    0.0000 O   0  0  0  0  0  0  0  0  0  0  0  0
    4.6783   -3.6710    0.0000 N   0  0  0  0  0  0  0  0  0  0  0  0
    7.2566    0.2520    0.0000 N   0  0  0  0  0  0  0  0  0  0  0  0
    4.6783   -2.0615    0.0000 C   0  0  0  0  0  0  0  0  0  0  0  0
    4.9889   -1.1110    0.0000 C   0  0  0  0  0  0  0  0  0  0  0  0
    3.7320   -2.3662    0.0000 C   0  0  0  0  0  0  0  0  0  0  0  0
    5.9674   -0.9048    0.0000 C   0  0  0  0  0  0  0  0  0  0  0  0
    3.7320   -3.3662    0.0000 C   0  0  0  0  0  0  0  0  0  0  0  0
    5.2619   -2.8662    0.0000 C   0  0  0  0  0  0  0  0  0  0  0  0
    7.5673    1.2025    0.0000 C   0  0  0  0  0  0  0  0  0  0  0  0
    6.2781    0.0458    0.0000 C   0  0  0  0  0  0  0  0  0  0  0  0
    8.5458    1.4087    0.0000 C   0  0  0  0  0  0  0  0  0  0  0  0
    2.8660   -1.8662    0.0000 C   0  0  0  0  0  0  0  0  0  0  0  0
    2.8660   -3.8662    0.0000 C   0  0  0  0  0  0  0  0  0  0  0  0
    8.8564    2.3592    0.0000 C   0  0  0  0  0  0  0  0  0  0  0  0
    2.0000   -2.3662    0.0000 C   0  0  0  0  0  0  0  0  0  0  0  0
    2.0000   -3.3662    0.0000 C   0  0  0  0  0  0  0  0  0  0  0  0
    9.8349    2.5655    0.0000 C   0  0  0  0  0  0  0  0  0  0  0  0
    8.1886    3.1035    0.0000 C   0  0  0  0  0  0  0  0  0  0  0  0
   10.1456    3.5160    0.0000 C   0  0  0  0  0  0  0  0  0  0  0  0
    8.4993    4.0541    0.0000 C   0  0  0  0  0  0  0  0  0  0  0  0
    9.4778    4.2603    0.0000 C   0  0  0  0  0  0  0  0  0  0  0  0
    4.9684   -0.4913    0.0000 H   0  0  0  0  0  0  0  0  0  0  0  0
    4.3751   -1.0236    0.0000 H   0  0  0  0  0  0  0  0  0  0  0  0
    5.9880   -1.5244    0.0000 H   0  0  0  0  0  0  0  0  0  0  0  0
    6.5812   -0.9921    0.0000 H   0  0  0  0  0  0  0  0  0  0  0  0
    5.8819   -2.8662    0.0000 H   0  0  0  0  0  0  0  0  0  0  0  0
    4.8709   -4.2603    0.0000 H   0  0  0  0  0  0  0  0  0  0  0  0
    7.5467    1.8222    0.0000 H   0  0  0  0  0  0  0  0  0  0  0  0
    6.9534    1.2898    0.0000 H   0  0  0  0  0  0  0  0  0  0  0  0
    8.5663    0.7891    0.0000 H   0  0  0  0  0  0  0  0  0  0  0  0
    9.1596    1.3214    0.0000 H   0  0  0  0  0  0  0  0  0  0  0  0
    2.8660   -1.2462    0.0000 H   0  0  0  0  0  0  0  0  0  0  0  0
    7.6707   -0.2095    0.0000 H   0  0  0  0  0  0  0  0  0  0  0  0
    2.8660   -4.4862    0.0000 H   0  0  0  0  0  0  0  0  0  0  0  0
    1.4631   -2.0562    0.0000 H   0  0  0  0  0  0  0  0  0  0  0  0
    1.4631   -3.6762    0.0000 H   0  0  0  0  0  0  0  0  0  0  0  0
   10.2490    2.1040    0.0000 H   0  0  0  0  0  0  0  0  0  0  0  0
    7.5819    2.9757    0.0000 H   0  0  0  0  0  0  0  0  0  0  0  0
    8.0852    4.5155    0.0000 H   0  0  0  0  0  0  0  0  0  0  0  0
    9.6704    4.8496    0.0000 H   0  0  0  0  0  0  0  0  0  0  0  0
  1 21  1  0  0  0  0
  2 12  2  0  0  0  0
  3  9  1  0  0  0  0
  3 10  1  0  0  0  0
  3 29  1  0  0  0  0
  4 11  1  0  0  0  0
  4 12  1  0  0  0  0
  4 35  1  0  0  0  0
  5  6  1  0  0  0  0
  5  7  1  0  0  0  0
  5 10  2  0  0  0  0
  6  8  1  0  0  0  0
  6 24  1  0  0  0  0
  6 25  1  0  0  0  0
  7  9  1  0  0  0  0
  7 14  2  0  0  0  0
  8 12  1  0  0  0  0
  8 26  1  0  0  0  0
  8 27  1  0  0  0  0
  9 15  2  0  0  0  0
 10 28  1  0  0  0  0
 11 13  1  0  0  0  0
 11 30  1  0  0  0  0
 11 31  1  0  0  0  0
 13 16  1  0  0  0  0
 13 32  1  0  0  0  0
 13 33  1  0  0  0  0
 14 17  1  0  0  0  0
 14 34  1  0  0  0  0
 15 18  1  0  0  0  0
 15 36  1  0  0  0  0
 16 19  2  0  0  0  0
 16 20  1  0  0  0  0
 17 18  2  0  0  0  0
 17 37  1  0  0  0  0
 18 38  1  0  0  0  0
 19 21  1  0  0  0  0
 19 39  1  0  0  0  0
 20 22  2  0  0  0  0
 20 40  1  0  0  0  0
 21 23  2  0  0  0  0
 22 23  1  0  0  0  0
 22 41  1  0  0  0  0
 23 42  1  0  0  0  0
M  END
> <PUBCHEM_COMPOUND_CID>
27838499

> <PUBCHEM_COMPOUND_CANONICALIZED>
1

> <PUBCHEM_CACTVS_COMPLEXITY>
390

> <PUBCHEM_CACTVS_HBOND_ACCEPTOR>
1

> <PUBCHEM_CACTVS_HBOND_DONOR>
2

> <PUBCHEM_CACTVS_ROTATABLE_BOND>
6

> <PUBCHEM_CACTVS_SUBSKEYS>
AAADceB7IAAEAAAAAAAAAAAAAAAAAWAAAAAwYAAAAAAAAFgB9AAAHgIQAAAADArBniQ8wPLJkACoAzV3VACCgCAxByAI2aE4ZpgIIPLBk5GEIAhglgDIyAcYicCOgAAAIAACAAAAAABAAAQAAAAAAAAAAA==

> <PUBCHEM_IUPAC_OPENEYE_NAME>
N-[2-(3-chlorophenyl)ethyl]-3-(1H-indol-3-yl)propanamide

> <PUBCHEM_IUPAC_CAS_NAME>
N-[2-(3-chlorophenyl)ethyl]-3-(1H-indol-3-yl)propanamide

> <PUBCHEM_IUPAC_NAME>
N-[2-(3-chlorophenyl)ethyl]-3-(1H-indol-3-yl)propanamide

> <PUBCHEM_IUPAC_SYSTEMATIC_NAME>
N-[2-(3-chlorophenyl)ethyl]-3-(1H-indol-3-yl)propanamide

> <PUBCHEM_IUPAC_TRADITIONAL_NAME>
N-[2-(3-chlorophenyl)ethyl]-3-(1H-indol-3-yl)propionamide

> <PUBCHEM_IUPAC_INCHI>
InChI=1S/C19H19ClN2O/c20-16-5-3-4-14(12-16)10-11-21-19(23)9-8-15-13-22-18-7-2-1-6-17(15)18/h1-7,12-13,22H,8-11H2,(H,21,23)

> <PUBCHEM_IUPAC_INCHIKEY>
FDQALIYZELYCKO-UHFFFAOYSA-N

> <PUBCHEM_XLOGP3>
4.1

> <PUBCHEM_EXACT_MASS>
326.118591

> <PUBCHEM_MOLECULAR_FORMULA>
C19H19ClN2O

> <PUBCHEM_MOLECULAR_WEIGHT>
326.81996

> <PUBCHEM_OPENEYE_CAN_SMILES>
C1=CC=C2C(=C1)C(=CN2)CCC(=O)NCCC3=CC(=CC=C3)Cl

> <PUBCHEM_OPENEYE_ISO_SMILES>
C1=CC=C2C(=C1)C(=CN2)CCC(=O)NCCC3=CC(=CC=C3)Cl

> <PUBCHEM_CACTVS_TPSA>
44.9

> <PUBCHEM_MONOISOTOPIC_WEIGHT>
326.118591

> <PUBCHEM_TOTAL_CHARGE>
0

> <PUBCHEM_HEAVY_ATOM_COUNT>
23

> <PUBCHEM_ATOM_DEF_STEREO_COUNT>
0

> <PUBCHEM_ATOM_UDEF_STEREO_COUNT>
0

> <PUBCHEM_BOND_DEF_STEREO_COUNT>
0

> <PUBCHEM_BOND_UDEF_STEREO_COUNT>
0

> <PUBCHEM_ISOTOPIC_ATOM_COUNT>
0

> <PUBCHEM_COMPONENT_COUNT>
1

> <PUBCHEM_CACTVS_TAUTO_COUNT>
2

> <PUBCHEM_COORDINATE_TYPE>
1
5
255

> <PUBCHEM_BONDANNOTATIONS>
14  17  8
15  18  8
16  19  8
16  20  8
17  18  8
19  21  8
20  22  8
21  23  8
22  23  8
3  10  8
3  9  8
5  10  8
5  7  8
7  14  8
7  9  8
9  15  8

$$$$
27848208
  -OEChem-11301217412D

 48 51  0     0  0  0  0  0  0999 V2000
    7.4629   -1.6017    0.0000 O   0  0  0  0  0  0  0  0  0  0  0  0
    8.3289   -0.1017    0.0000 N   0  0  0  0  0  0  0  0  0  0  0  0
    3.7899    1.0963    0.0000 N   0  0  0  0  0  0  0  0  0  0  0  0
    5.7308   -0.6017    0.0000 C   0  0  0  0  0  0  0  0  0  0  0  0
    4.8648   -0.1017    0.0000 C   0  0  0  0  0  0  0  0  0  0  0  0
    6.5968   -0.1017    0.0000 C   0  0  0  0  0  0  0  0  0  0  0  0
    3.9570   -0.5068    0.0000 C   0  0  0  0  0  0  0  0  0  0  0  0
    3.2892    0.2375    0.0000 C   0  0  0  0  0  0  0  0  0  0  0  0
    9.1949   -0.6017    0.0000 C   0  0  0  0  0  0  0  0  0  0  0  0
    7.4629   -0.6017    0.0000 C   0  0  0  0  0  0  0  0  0  0  0  0
    4.7617    0.8871    0.0000 C   0  0  0  0  0  0  0  0  0  0  0  0
   10.0610   -0.1017    0.0000 C   0  0  0  0  0  0  0  0  0  0  0  0
    3.6464   -1.4573    0.0000 C   0  0  0  0  0  0  0  0  0  0  0  0
   10.9270   -0.6017    0.0000 C   0  0  0  0  0  0  0  0  0  0  0  0
   11.7930   -0.1017    0.0000 C   0  0  0  0  0  0  0  0  0  0  0  0
    2.3107    0.0313    0.0000 C   0  0  0  0  0  0  0  0  0  0  0  0
   11.7930    0.8983    0.0000 C   0  0  0  0  0  0  0  0  0  0  0  0
   10.0610    0.8983    0.0000 C   0  0  0  0  0  0  0  0  0  0  0  0
    8.3289    0.8983    0.0000 C   0  0  0  0  0  0  0  0  0  0  0  0
   10.9270    1.3983    0.0000 C   0  0  0  0  0  0  0  0  0  0  0  0
    2.6678   -1.6635    0.0000 C   0  0  0  0  0  0  0  0  0  0  0  0
    2.0000   -0.9192    0.0000 C   0  0  0  0  0  0  0  0  0  0  0  0
   12.6869   -0.6363    0.0000 C   0  0  0  0  0  0  0  0  0  0  0  0
   12.6869    1.4330    0.0000 C   0  0  0  0  0  0  0  0  0  0  0  0
   13.5930   -0.1225    0.0000 C   0  0  0  0  0  0  0  0  0  0  0  0
   13.5930    0.9191    0.0000 C   0  0  0  0  0  0  0  0  0  0  0  0
    5.3323   -1.0766    0.0000 H   0  0  0  0  0  0  0  0  0  0  0  0
    6.1293   -1.0766    0.0000 H   0  0  0  0  0  0  0  0  0  0  0  0
    6.9954    0.3733    0.0000 H   0  0  0  0  0  0  0  0  0  0  0  0
    6.1983    0.3733    0.0000 H   0  0  0  0  0  0  0  0  0  0  0  0
    8.7964   -1.0766    0.0000 H   0  0  0  0  0  0  0  0  0  0  0  0
    9.5934   -1.0766    0.0000 H   0  0  0  0  0  0  0  0  0  0  0  0
    5.2232    1.3011    0.0000 H   0  0  0  0  0  0  0  0  0  0  0  0
    3.5397    1.6635    0.0000 H   0  0  0  0  0  0  0  0  0  0  0  0
    4.0604   -1.9188    0.0000 H   0  0  0  0  0  0  0  0  0  0  0  0
   10.9270   -1.2217    0.0000 H   0  0  0  0  0  0  0  0  0  0  0  0
    1.8966    0.4928    0.0000 H   0  0  0  0  0  0  0  0  0  0  0  0
    9.5240    1.2083    0.0000 H   0  0  0  0  0  0  0  0  0  0  0  0
    8.9489    0.8983    0.0000 H   0  0  0  0  0  0  0  0  0  0  0  0
    8.3289    1.5183    0.0000 H   0  0  0  0  0  0  0  0  0  0  0  0
    7.7089    0.8983    0.0000 H   0  0  0  0  0  0  0  0  0  0  0  0
   10.9270    2.0183    0.0000 H   0  0  0  0  0  0  0  0  0  0  0  0
    2.4752   -2.2528    0.0000 H   0  0  0  0  0  0  0  0  0  0  0  0
    1.3933   -1.0471    0.0000 H   0  0  0  0  0  0  0  0  0  0  0  0
   12.6798   -1.2563    0.0000 H   0  0  0  0  0  0  0  0  0  0  0  0
   12.6798    2.0530    0.0000 H   0  0  0  0  0  0  0  0  0  0  0  0
   14.1287   -0.4346    0.0000 H   0  0  0  0  0  0  0  0  0  0  0  0
   14.1287    1.2312    0.0000 H   0  0  0  0  0  0  0  0  0  0  0  0
  1 10  2  0  0  0  0
  2  9  1  0  0  0  0
  2 10  1  0  0  0  0
  2 19  1  0  0  0  0
  3  8  1  0  0  0  0
  3 11  1  0  0  0  0
  3 34  1  0  0  0  0
  4  5  1  0  0  0  0
  4  6  1  0  0  0  0
  4 27  1  0  0  0  0
  4 28  1  0  0  0  0
  5  7  1  0  0  0  0
  5 11  2  0  0  0  0
  6 10  1  0  0  0  0
  6 29  1  0  0  0  0
  6 30  1  0  0  0  0
  7  8  1  0  0  0  0
  7 13  2  0  0  0  0
  8 16  2  0  0  0  0
  9 12  1  0  0  0  0
  9 31  1  0  0  0  0
  9 32  1  0  0  0  0
 11 33  1  0  0  0  0
 12 14  2  0  0  0  0
 12 18  1  0  0  0  0
 13 21  1  0  0  0  0
 13 35  1  0  0  0  0
 14 15  1  0  0  0  0
 14 36  1  0  0  0  0
 15 17  1  0  0  0  0
 15 23  2  0  0  0  0
 16 22  1  0  0  0  0
 16 37  1  0  0  0  0
 17 20  1  0  0  0  0
 17 24  2  0  0  0  0
 18 20  2  0  0  0  0
 18 38  1  0  0  0  0
 19 39  1  0  0  0  0
 19 40  1  0  0  0  0
 19 41  1  0  0  0  0
 20 42  1  0  0  0  0
 21 22  2  0  0  0  0
 21 43  1  0  0  0  0
 22 44  1  0  0  0  0
 23 25  1  0  0  0  0
 23 45  1  0  0  0  0
 24 26  1  0  0  0  0
 24 46  1  0  0  0  0
 25 26  2  0  0  0  0
 25 47  1  0  0  0  0
 26 48  1  0  0  0  0
M  END
> <PUBCHEM_COMPOUND_CID>
27848208

> <PUBCHEM_COMPOUND_CANONICALIZED>
1

> <PUBCHEM_CACTVS_COMPLEXITY>
479

> <PUBCHEM_CACTVS_HBOND_ACCEPTOR>
1

> <PUBCHEM_CACTVS_HBOND_DONOR>
1

> <PUBCHEM_CACTVS_ROTATABLE_BOND>
5

> <PUBCHEM_CACTVS_SUBSKEYS>
AAADceB7IAAAAAAAAAAAAAAAAAAAAWAAAAAwYMAAAAAAAFjB9AAAHgAQAAAADAjBngQ+wPPJkACoAzV3VACCgCAxAiAI2aE4ZJgIIPLAkZGEIAhglgDIyAcYicCOwAACAAASAACAAAQAACQAAAAAAAAAAA==

> <PUBCHEM_IUPAC_OPENEYE_NAME>
3-(1H-indol-3-yl)-N-methyl-N-(2-naphthylmethyl)propanamide

> <PUBCHEM_IUPAC_CAS_NAME>
3-(1H-indol-3-yl)-N-methyl-N-(2-naphthalenylmethyl)propanamide

> <PUBCHEM_IUPAC_NAME>
3-(1H-indol-3-yl)-N-methyl-N-(naphthalen-2-ylmethyl)propanamide

> <PUBCHEM_IUPAC_SYSTEMATIC_NAME>
3-(1H-indol-3-yl)-N-methyl-N-(naphthalen-2-ylmethyl)propanamide

> <PUBCHEM_IUPAC_TRADITIONAL_NAME>
3-(1H-indol-3-yl)-N-methyl-N-(2-naphthylmethyl)propionamide

> <PUBCHEM_IUPAC_INCHI>
InChI=1S/C23H22N2O/c1-25(16-17-10-11-18-6-2-3-7-19(18)14-17)23(26)13-12-20-15-24-22-9-5-4-8-21(20)22/h2-11,14-15,24H,12-13,16H2,1H3

> <PUBCHEM_IUPAC_INCHIKEY>
WCHVQTIRYAEWKV-UHFFFAOYSA-N

> <PUBCHEM_XLOGP3>
4.4

> <PUBCHEM_EXACT_MASS>
342.173213

> <PUBCHEM_MOLECULAR_FORMULA>
C23H22N2O

> <PUBCHEM_MOLECULAR_WEIGHT>
342.43358

> <PUBCHEM_OPENEYE_CAN_SMILES>
CN(CC1=CC2=CC=CC=C2C=C1)C(=O)CCC3=CNC4=CC=CC=C43

> <PUBCHEM_OPENEYE_ISO_SMILES>
CN(CC1=CC2=CC=CC=C2C=C1)C(=O)CCC3=CNC4=CC=CC=C43

> <PUBCHEM_CACTVS_TPSA>
36.1

> <PUBCHEM_MONOISOTOPIC_WEIGHT>
342.173213

> <PUBCHEM_TOTAL_CHARGE>
0

> <PUBCHEM_HEAVY_ATOM_COUNT>
26

> <PUBCHEM_ATOM_DEF_STEREO_COUNT>
0

> <PUBCHEM_ATOM_UDEF_STEREO_COUNT>
0

> <PUBCHEM_BOND_DEF_STEREO_COUNT>
0

> <PUBCHEM_BOND_UDEF_STEREO_COUNT>
0

> <PUBCHEM_ISOTOPIC_ATOM_COUNT>
0

> <PUBCHEM_COMPONENT_COUNT>
1

> <PUBCHEM_CACTVS_TAUTO_COUNT>
1

> <PUBCHEM_COORDINATE_TYPE>
1
5
255

> <PUBCHEM_BONDANNOTATIONS>
12  14  8
12  18  8
13  21  8
14  15  8
15  17  8
15  23  8
16  22  8
17  20  8
17  24  8
18  20  8
21  22  8
23  25  8
24  26  8
25  26  8
3  11  8
3  8  8
5  11  8
5  7  8
7  13  8
7  8  8
8  16  8

$$$$
27848217
  -OEChem-11301217412D

 45 48  0     0  0  0  0  0  0999 V2000
    6.5968   -1.1347    0.0000 O   0  0  0  0  0  0  0  0  0  0  0  0
    7.4629    0.3653    0.0000 N   0  0  0  0  0  0  0  0  0  0  0  0
    3.7899   -1.3327    0.0000 N   0  0  0  0  0  0  0  0  0  0  0  0
    4.8648   -0.1347    0.0000 C   0  0  0  0  0  0  0  0  0  0  0  0
    5.7308    0.3653    0.0000 C   0  0  0  0  0  0  0  0  0  0  0  0
    3.9570    0.2704    0.0000 C   0  0  0  0  0  0  0  0  0  0  0  0
    8.3289   -0.1347    0.0000 C   0  0  0  0  0  0  0  0  0  0  0  0
    3.2892   -0.4739    0.0000 C   0  0  0  0  0  0  0  0  0  0  0  0
    9.1949    0.3653    0.0000 C   0  0  0  0  0  0  0  0  0  0  0  0
    6.5968   -0.1347    0.0000 C   0  0  0  0  0  0  0  0  0  0  0  0
    4.7617   -1.1235    0.0000 C   0  0  0  0  0  0  0  0  0  0  0  0
   10.9270    0.3653    0.0000 C   0  0  0  0  0  0  0  0  0  0  0  0
   10.0610   -0.1347    0.0000 C   0  0  0  0  0  0  0  0  0  0  0  0
    3.6464    1.2209    0.0000 C   0  0  0  0  0  0  0  0  0  0  0  0
   10.9270    1.3653    0.0000 C   0  0  0  0  0  0  0  0  0  0  0  0
    9.1949    1.3653    0.0000 C   0  0  0  0  0  0  0  0  0  0  0  0
    7.4629    1.3653    0.0000 C   0  0  0  0  0  0  0  0  0  0  0  0
    2.3107   -0.2677    0.0000 C   0  0  0  0  0  0  0  0  0  0  0  0
   10.0610    1.8653    0.0000 C   0  0  0  0  0  0  0  0  0  0  0  0
    2.6678    1.4271    0.0000 C   0  0  0  0  0  0  0  0  0  0  0  0
    2.0000    0.6828    0.0000 C   0  0  0  0  0  0  0  0  0  0  0  0
   11.8209   -0.1694    0.0000 C   0  0  0  0  0  0  0  0  0  0  0  0
   11.8209    1.8999    0.0000 C   0  0  0  0  0  0  0  0  0  0  0  0
   12.7270    0.3445    0.0000 C   0  0  0  0  0  0  0  0  0  0  0  0
   12.7270    1.3861    0.0000 C   0  0  0  0  0  0  0  0  0  0  0  0
    6.1293    0.8402    0.0000 H   0  0  0  0  0  0  0  0  0  0  0  0
    5.3323    0.8402    0.0000 H   0  0  0  0  0  0  0  0  0  0  0  0
    7.9304   -0.6097    0.0000 H   0  0  0  0  0  0  0  0  0  0  0  0
    8.7274   -0.6097    0.0000 H   0  0  0  0  0  0  0  0  0  0  0  0
    5.2232   -1.5375    0.0000 H   0  0  0  0  0  0  0  0  0  0  0  0
    3.5397   -1.8999    0.0000 H   0  0  0  0  0  0  0  0  0  0  0  0
   10.0610   -0.7547    0.0000 H   0  0  0  0  0  0  0  0  0  0  0  0
    4.0604    1.6824    0.0000 H   0  0  0  0  0  0  0  0  0  0  0  0
    8.6580    1.6753    0.0000 H   0  0  0  0  0  0  0  0  0  0  0  0
    8.0829    1.3653    0.0000 H   0  0  0  0  0  0  0  0  0  0  0  0
    7.4629    1.9853    0.0000 H   0  0  0  0  0  0  0  0  0  0  0  0
    6.8429    1.3653    0.0000 H   0  0  0  0  0  0  0  0  0  0  0  0
    1.8966   -0.7292    0.0000 H   0  0  0  0  0  0  0  0  0  0  0  0
   10.0610    2.4853    0.0000 H   0  0  0  0  0  0  0  0  0  0  0  0
    2.4752    2.0164    0.0000 H   0  0  0  0  0  0  0  0  0  0  0  0
    1.3933    0.8107    0.0000 H   0  0  0  0  0  0  0  0  0  0  0  0
   11.8137   -0.7894    0.0000 H   0  0  0  0  0  0  0  0  0  0  0  0
   11.8137    2.5199    0.0000 H   0  0  0  0  0  0  0  0  0  0  0  0
   13.2627    0.0324    0.0000 H   0  0  0  0  0  0  0  0  0  0  0  0
   13.2627    1.6982    0.0000 H   0  0  0  0  0  0  0  0  0  0  0  0
  1 10  2  0  0  0  0
  2  7  1  0  0  0  0
  2 10  1  0  0  0  0
  2 17  1  0  0  0  0
  3  8  1  0  0  0  0
  3 11  1  0  0  0  0
  3 31  1  0  0  0  0
  4  5  1  0  0  0  0
  4  6  1  0  0  0  0
  4 11  2  0  0  0  0
  5 10  1  0  0  0  0
  5 26  1  0  0  0  0
  5 27  1  0  0  0  0
  6  8  1  0  0  0  0
  6 14  2  0  0  0  0
  7  9  1  0  0  0  0
  7 28  1  0  0  0  0
  7 29  1  0  0  0  0
  8 18  2  0  0  0  0
  9 13  2  0  0  0  0
  9 16  1  0  0  0  0
 11 30  1  0  0  0  0
 12 13  1  0  0  0  0
 12 15  1  0  0  0  0
 12 22  2  0  0  0  0
 13 32  1  0  0  0  0
 14 20  1  0  0  0  0
 14 33  1  0  0  0  0
 15 19  1  0  0  0  0
 15 23  2  0  0  0  0
 16 19  2  0  0  0  0
 16 34  1  0  0  0  0
 17 35  1  0  0  0  0
 17 36  1  0  0  0  0
 17 37  1  0  0  0  0
 18 21  1  0  0  0  0
 18 38  1  0  0  0  0
 19 39  1  0  0  0  0
 20 21  2  0  0  0  0
 20 40  1  0  0  0  0
 21 41  1  0  0  0  0
 22 24  1  0  0  0  0
 22 42  1  0  0  0  0
 23 25  1  0  0  0  0
 23 43  1  0  0  0  0
 24 25  2  0  0  0  0
 24 44  1  0  0  0  0
 25 45  1  0  0  0  0
M  END
> <PUBCHEM_COMPOUND_CID>
27848217

> <PUBCHEM_COMPOUND_CANONICALIZED>
1

> <PUBCHEM_CACTVS_COMPLEXITY>
465

> <PUBCHEM_CACTVS_HBOND_ACCEPTOR>
1

> <PUBCHEM_CACTVS_HBOND_DONOR>
1

> <PUBCHEM_CACTVS_ROTATABLE_BOND>
4

> <PUBCHEM_CACTVS_SUBSKEYS>
AAADceB7IAAAAAAAAAAAAAAAAAAAAWAAAAAwYMAAAAAAAFjB9AAAHgAQAAAADAjBngQ+wPPJkACoAzV3VACCgCAxAiAI2aE4ZJgIIPLAlZGEIAhglgDIyAccicCewAACAAASAACAAAQAACQAAAAAAAAAAA==

> <PUBCHEM_IUPAC_OPENEYE_NAME>
2-(1H-indol-3-yl)-N-methyl-N-(2-naphthylmethyl)acetamide

> <PUBCHEM_IUPAC_CAS_NAME>
2-(1H-indol-3-yl)-N-methyl-N-(2-naphthalenylmethyl)acetamide

> <PUBCHEM_IUPAC_NAME>
2-(1H-indol-3-yl)-N-methyl-N-(naphthalen-2-ylmethyl)acetamide

> <PUBCHEM_IUPAC_SYSTEMATIC_NAME>
2-(1H-indol-3-yl)-N-methyl-N-(naphthalen-2-ylmethyl)ethanamide

> <PUBCHEM_IUPAC_TRADITIONAL_NAME>
2-(1H-indol-3-yl)-N-methyl-N-(2-naphthylmethyl)acetamide

> <PUBCHEM_IUPAC_INCHI>
InChI=1S/C22H20N2O/c1-24(15-16-10-11-17-6-2-3-7-18(17)12-16)22(25)13-19-14-23-21-9-5-4-8-20(19)21/h2-12,14,23H,13,15H2,1H3

> <PUBCHEM_IUPAC_INCHIKEY>
NYIQQRVVRPZLPA-UHFFFAOYSA-N

> <PUBCHEM_XLOGP3>
4.1

> <PUBCHEM_EXACT_MASS>
328.157563

> <PUBCHEM_MOLECULAR_FORMULA>
C22H20N2O

> <PUBCHEM_MOLECULAR_WEIGHT>
328.407

> <PUBCHEM_OPENEYE_CAN_SMILES>
CN(CC1=CC2=CC=CC=C2C=C1)C(=O)CC3=CNC4=CC=CC=C43

> <PUBCHEM_OPENEYE_ISO_SMILES>
CN(CC1=CC2=CC=CC=C2C=C1)C(=O)CC3=CNC4=CC=CC=C43

> <PUBCHEM_CACTVS_TPSA>
36.1

> <PUBCHEM_MONOISOTOPIC_WEIGHT>
328.157563

> <PUBCHEM_TOTAL_CHARGE>
0

> <PUBCHEM_HEAVY_ATOM_COUNT>
25

> <PUBCHEM_ATOM_DEF_STEREO_COUNT>
0

> <PUBCHEM_ATOM_UDEF_STEREO_COUNT>
0

> <PUBCHEM_BOND_DEF_STEREO_COUNT>
0

> <PUBCHEM_BOND_UDEF_STEREO_COUNT>
0

> <PUBCHEM_ISOTOPIC_ATOM_COUNT>
0

> <PUBCHEM_COMPONENT_COUNT>
1

> <PUBCHEM_CACTVS_TAUTO_COUNT>
1

> <PUBCHEM_COORDINATE_TYPE>
1
5
255

> <PUBCHEM_BONDANNOTATIONS>
12  13  8
12  15  8
12  22  8
14  20  8
15  19  8
15  23  8
16  19  8
18  21  8
20  21  8
22  24  8
23  25  8
24  25  8
3  11  8
3  8  8
4  11  8
4  6  8
6  14  8
6  8  8
8  18  8
9  13  8
9  16  8

$$$$
