40201592
  -OEChem-03061303122D

 38 39  0     0  0  0  0  0  0999 V2000
    5.4641   -1.5173    0.0000 O   0  0  0  0  0  0  0  0  0  0  0  0
    6.3301   -0.0173    0.0000 N   0  0  0  0  0  0  0  0  0  0  0  0
    6.3301    0.9827    0.0000 C   0  0  0  0  0  0  0  0  0  0  0  0
    7.1962   -0.5173    0.0000 C   0  0  0  0  0  0  0  0  0  0  0  0
    7.1962    1.4827    0.0000 C   0  0  0  0  0  0  0  0  0  0  0  0
    8.0622   -0.0173    0.0000 C   0  0  0  0  0  0  0  0  0  0  0  0
    8.0622    0.9827    0.0000 C   0  0  0  0  0  0  0  0  0  0  0  0
    3.7320   -0.5173    0.0000 C   0  0  0  0  0  0  0  0  0  0  0  0
    4.5981   -0.0173    0.0000 C   0  0  0  0  0  0  0  0  0  0  0  0
    2.8660   -0.0173    0.0000 C   0  0  0  0  0  0  0  0  0  0  0  0
    5.4641   -0.5173    0.0000 C   0  0  0  0  0  0  0  0  0  0  0  0
    8.9561   -0.5520    0.0000 C   0  0  0  0  0  0  0  0  0  0  0  0
    8.9561    1.5173    0.0000 C   0  0  0  0  0  0  0  0  0  0  0  0
    2.0000   -0.5173    0.0000 C   0  0  0  0  0  0  0  0  0  0  0  0
    2.8660    0.9827    0.0000 C   0  0  0  0  0  0  0  0  0  0  0  0
    9.8622   -0.0381    0.0000 C   0  0  0  0  0  0  0  0  0  0  0  0
    9.8622    1.0035    0.0000 C   0  0  0  0  0  0  0  0  0  0  0  0
    6.1181    1.5653    0.0000 H   0  0  0  0  0  0  0  0  0  0  0  0
    5.7196    0.8750    0.0000 H   0  0  0  0  0  0  0  0  0  0  0  0
    6.7976   -0.9923    0.0000 H   0  0  0  0  0  0  0  0  0  0  0  0
    7.5947   -0.9923    0.0000 H   0  0  0  0  0  0  0  0  0  0  0  0
    7.5947    1.9576    0.0000 H   0  0  0  0  0  0  0  0  0  0  0  0
    6.7976    1.9576    0.0000 H   0  0  0  0  0  0  0  0  0  0  0  0
    3.3335   -0.9923    0.0000 H   0  0  0  0  0  0  0  0  0  0  0  0
    4.1306   -0.9923    0.0000 H   0  0  0  0  0  0  0  0  0  0  0  0
    4.9966    0.4576    0.0000 H   0  0  0  0  0  0  0  0  0  0  0  0
    4.1996    0.4576    0.0000 H   0  0  0  0  0  0  0  0  0  0  0  0
    2.8660   -0.6373    0.0000 H   0  0  0  0  0  0  0  0  0  0  0  0
    8.9490   -1.1720    0.0000 H   0  0  0  0  0  0  0  0  0  0  0  0
    8.9490    2.1373    0.0000 H   0  0  0  0  0  0  0  0  0  0  0  0
    3.4860    0.9827    0.0000 H   0  0  0  0  0  0  0  0  0  0  0  0
    1.6900    0.0196    0.0000 H   0  0  0  0  0  0  0  0  0  0  0  0
    1.4631   -0.8273    0.0000 H   0  0  0  0  0  0  0  0  0  0  0  0
    2.3100   -1.0543    0.0000 H   0  0  0  0  0  0  0  0  0  0  0  0
    2.8660    1.6027    0.0000 H   0  0  0  0  0  0  0  0  0  0  0  0
    2.2460    0.9827    0.0000 H   0  0  0  0  0  0  0  0  0  0  0  0
   10.3979   -0.3502    0.0000 H   0  0  0  0  0  0  0  0  0  0  0  0
   10.3979    1.3156    0.0000 H   0  0  0  0  0  0  0  0  0  0  0  0
  1 11  2  0  0  0  0
  2  3  1  0  0  0  0
  2  4  1  0  0  0  0
  2 11  1  0  0  0  0
  3  5  1  0  0  0  0
  3 18  1  0  0  0  0
  3 19  1  0  0  0  0
  4  6  1  0  0  0  0
  4 20  1  0  0  0  0
  4 21  1  0  0  0  0
  5  7  1  0  0  0  0
  5 22  1  0  0  0  0
  5 23  1  0  0  0  0
  6  7  1  0  0  0  0
  6 12  2  0  0  0  0
  7 13  2  0  0  0  0
  8  9  1  0  0  0  0
  8 10  1  0  0  0  0
  8 24  1  0  0  0  0
  8 25  1  0  0  0  0
  9 11  1  0  0  0  0
  9 26  1  0  0  0  0
  9 27  1  0  0  0  0
 10 14  1  0  0  0  0
 10 15  1  0  0  0  0
 10 28  1  0  0  0  0
 12 16  1  0  0  0  0
 12 29  1  0  0  0  0
 13 17  1  0  0  0  0
 13 30  1  0  0  0  0
 14 32  1  0  0  0  0
 14 33  1  0  0  0  0
 14 34  1  0  0  0  0
 15 31  1  0  0  0  0
 15 35  1  0  0  0  0
 15 36  1  0  0  0  0
 16 17  2  0  0  0  0
 16 37  1  0  0  0  0
 17 38  1  0  0  0  0
M  END
> <PUBCHEM_COMPOUND_CID>
40201592

> <PUBCHEM_COMPOUND_CANONICALIZED>
1

> <PUBCHEM_CACTVS_COMPLEXITY>
262

> <PUBCHEM_CACTVS_HBOND_ACCEPTOR>
1

> <PUBCHEM_CACTVS_HBOND_DONOR>
0

> <PUBCHEM_CACTVS_ROTATABLE_BOND>
3

> <PUBCHEM_CACTVS_SUBSKEYS>
AAADceByIAAAAAAAAAAAAAAAAAAAAAAAAAA8QAAAAAAAAACxAAAAHgAAAAAADQDBmAQyAIMAAACIAiFSEACCAAAgAAAIiAEIBIgIIDKAkRGEIAhghgCIiAcYgIAOgAAAAAAQAAAAAAAAACAAAAAAAAAAAA==

> <PUBCHEM_IUPAC_OPENEYE_NAME>
1-(3,4-dihydro-1H-isoquinolin-2-yl)-4-methyl-pentan-1-one

> <PUBCHEM_IUPAC_CAS_NAME>
1-(3,4-dihydro-1H-isoquinolin-2-yl)-4-methyl-1-pentanone

> <PUBCHEM_IUPAC_NAME>
1-(3,4-dihydro-1H-isoquinolin-2-yl)-4-methylpentan-1-one

> <PUBCHEM_IUPAC_SYSTEMATIC_NAME>
1-(3,4-dihydro-1H-isoquinolin-2-yl)-4-methyl-pentan-1-one

> <PUBCHEM_IUPAC_TRADITIONAL_NAME>
1-(3,4-dihydro-1H-isoquinolin-2-yl)-4-methyl-pentan-1-one

> <PUBCHEM_IUPAC_INCHI>
InChI=1S/C15H21NO/c1-12(2)7-8-15(17)16-10-9-13-5-3-4-6-14(13)11-16/h3-6,12H,7-11H2,1-2H3

> <PUBCHEM_IUPAC_INCHIKEY>
DRYAYMGOZCUDMZ-UHFFFAOYSA-N

> <PUBCHEM_XLOGP3>
2.9

> <PUBCHEM_EXACT_MASS>
231.162314

> <PUBCHEM_MOLECULAR_FORMULA>
C15H21NO

> <PUBCHEM_MOLECULAR_WEIGHT>
231.33334

> <PUBCHEM_OPENEYE_CAN_SMILES>
CC(C)CCC(=O)N1CCC2=CC=CC=C2C1

> <PUBCHEM_OPENEYE_ISO_SMILES>
CC(C)CCC(=O)N1CCC2=CC=CC=C2C1

> <PUBCHEM_CACTVS_TPSA>
20.3

> <PUBCHEM_MONOISOTOPIC_WEIGHT>
231.162314

> <PUBCHEM_TOTAL_CHARGE>
0

> <PUBCHEM_HEAVY_ATOM_COUNT>
17

> <PUBCHEM_ATOM_DEF_STEREO_COUNT>
0

> <PUBCHEM_ATOM_UDEF_STEREO_COUNT>
0

> <PUBCHEM_BOND_DEF_STEREO_COUNT>
0

> <PUBCHEM_BOND_UDEF_STEREO_COUNT>
0

> <PUBCHEM_ISOTOPIC_ATOM_COUNT>
0

> <PUBCHEM_COMPONENT_COUNT>
1

> <PUBCHEM_CACTVS_TAUTO_COUNT>
1

> <PUBCHEM_COORDINATE_TYPE>
1
5
255

> <PUBCHEM_BONDANNOTATIONS>
12  16  8
13  17  8
16  17  8
6  12  8
6  7  8
7  13  8

$$$$
40201801
  -OEChem-03061303122D

 38 39  0     0  0  0  0  0  0999 V2000
    2.8660    0.7500    0.0000 O   0  0  0  0  0  0  0  0  0  0  0  0
    4.5981    0.7500    0.0000 N   0  0  0  0  0  0  0  0  0  0  0  0
    3.7320   -0.7500    0.0000 C   0  0  0  0  0  0  0  0  0  0  0  0
    2.8660   -1.2500    0.0000 C   0  0  0  0  0  0  0  0  0  0  0  0
    4.5981   -1.2500    0.0000 C   0  0  0  0  0  0  0  0  0  0  0  0
    3.7320   -2.7500    0.0000 C   0  0  0  0  0  0  0  0  0  0  0  0
    2.8660   -2.2500    0.0000 C   0  0  0  0  0  0  0  0  0  0  0  0
    4.5981   -2.2500    0.0000 C   0  0  0  0  0  0  0  0  0  0  0  0
    3.7320    0.2500    0.0000 C   0  0  0  0  0  0  0  0  0  0  0  0
    2.0000   -0.7500    0.0000 C   0  0  0  0  0  0  0  0  0  0  0  0
    5.4641   -0.7500    0.0000 C   0  0  0  0  0  0  0  0  0  0  0  0
    4.5981    1.7500    0.0000 C   0  0  0  0  0  0  0  0  0  0  0  0
    3.7320   -3.7500    0.0000 C   0  0  0  0  0  0  0  0  0  0  0  0
    5.4641    2.2500    0.0000 C   0  0  0  0  0  0  0  0  0  0  0  0
    5.4641    3.2500    0.0000 C   0  0  0  0  0  0  0  0  0  0  0  0
    3.7320    2.2500    0.0000 C   0  0  0  0  0  0  0  0  0  0  0  0
    4.5981    3.7500    0.0000 C   0  0  0  0  0  0  0  0  0  0  0  0
    3.7320    3.2500    0.0000 C   0  0  0  0  0  0  0  0  0  0  0  0
    6.3301    3.7500    0.0000 C   0  0  0  0  0  0  0  0  0  0  0  0
    2.3291   -2.5600    0.0000 H   0  0  0  0  0  0  0  0  0  0  0  0
    5.1350   -2.5600    0.0000 H   0  0  0  0  0  0  0  0  0  0  0  0
    2.3100   -0.2131    0.0000 H   0  0  0  0  0  0  0  0  0  0  0  0
    1.4631   -0.4400    0.0000 H   0  0  0  0  0  0  0  0  0  0  0  0
    1.6900   -1.2869    0.0000 H   0  0  0  0  0  0  0  0  0  0  0  0
    5.7741   -1.2869    0.0000 H   0  0  0  0  0  0  0  0  0  0  0  0
    6.0010   -0.4400    0.0000 H   0  0  0  0  0  0  0  0  0  0  0  0
    5.1541   -0.2131    0.0000 H   0  0  0  0  0  0  0  0  0  0  0  0
    5.1350    0.4400    0.0000 H   0  0  0  0  0  0  0  0  0  0  0  0
    3.1120   -3.7500    0.0000 H   0  0  0  0  0  0  0  0  0  0  0  0
    3.7320   -4.3700    0.0000 H   0  0  0  0  0  0  0  0  0  0  0  0
    4.3520   -3.7500    0.0000 H   0  0  0  0  0  0  0  0  0  0  0  0
    6.0010    1.9400    0.0000 H   0  0  0  0  0  0  0  0  0  0  0  0
    3.1951    1.9400    0.0000 H   0  0  0  0  0  0  0  0  0  0  0  0
    4.5981    4.3700    0.0000 H   0  0  0  0  0  0  0  0  0  0  0  0
    3.1951    3.5600    0.0000 H   0  0  0  0  0  0  0  0  0  0  0  0
    6.6401    3.2131    0.0000 H   0  0  0  0  0  0  0  0  0  0  0  0
    6.8671    4.0600    0.0000 H   0  0  0  0  0  0  0  0  0  0  0  0
    6.0201    4.2869    0.0000 H   0  0  0  0  0  0  0  0  0  0  0  0
  1  9  2  0  0  0  0
  2  9  1  0  0  0  0
  2 12  1  0  0  0  0
  2 28  1  0  0  0  0
  3  4  2  0  0  0  0
  3  5  1  0  0  0  0
  3  9  1  0  0  0  0
  4  7  1  0  0  0  0
  4 10  1  0  0  0  0
  5  8  2  0  0  0  0
  5 11  1  0  0  0  0
  6  7  2  0  0  0  0
  6  8  1  0  0  0  0
  6 13  1  0  0  0  0
  7 20  1  0  0  0  0
  8 21  1  0  0  0  0
 10 22  1  0  0  0  0
 10 23  1  0  0  0  0
 10 24  1  0  0  0  0
 11 25  1  0  0  0  0
 11 26  1  0  0  0  0
 11 27  1  0  0  0  0
 12 14  1  0  0  0  0
 12 16  2  0  0  0  0
 13 29  1  0  0  0  0
 13 30  1  0  0  0  0
 13 31  1  0  0  0  0
 14 15  2  0  0  0  0
 14 32  1  0  0  0  0
 15 17  1  0  0  0  0
 15 19  1  0  0  0  0
 16 18  1  0  0  0  0
 16 33  1  0  0  0  0
 17 18  2  0  0  0  0
 17 34  1  0  0  0  0
 18 35  1  0  0  0  0
 19 36  1  0  0  0  0
 19 37  1  0  0  0  0
 19 38  1  0  0  0  0
M  END
> <PUBCHEM_COMPOUND_CID>
40201801

> <PUBCHEM_COMPOUND_CANONICALIZED>
1

> <PUBCHEM_CACTVS_COMPLEXITY>
302

> <PUBCHEM_CACTVS_HBOND_ACCEPTOR>
1

> <PUBCHEM_CACTVS_HBOND_DONOR>
1

> <PUBCHEM_CACTVS_ROTATABLE_BOND>
2

> <PUBCHEM_CACTVS_SUBSKEYS>
AAADceB6IAAAAAAAAAAAAAAAAAAAAAAAAAAwYAAAAAAAAAABQAAAHgAQAAAADAiBmAAywILAAACIAiVSUACCAAAlAgAIiAEAZMgIIDLAlZGEIQhglADIyQcYiMCOwAACQAAQAACAAASAACAAAAAAAAAAAA==

> <PUBCHEM_IUPAC_OPENEYE_NAME>
2,4,6-trimethyl-N-(m-tolyl)benzamide

> <PUBCHEM_IUPAC_CAS_NAME>
2,4,6-trimethyl-N-(3-methylphenyl)benzamide

> <PUBCHEM_IUPAC_NAME>
2,4,6-trimethyl-N-(3-methylphenyl)benzamide

> <PUBCHEM_IUPAC_SYSTEMATIC_NAME>
2,4,6-trimethyl-N-(3-methylphenyl)benzamide

> <PUBCHEM_IUPAC_TRADITIONAL_NAME>
2,4,6-trimethyl-N-(m-tolyl)benzamide

> <PUBCHEM_IUPAC_INCHI>
InChI=1S/C17H19NO/c1-11-6-5-7-15(10-11)18-17(19)16-13(3)8-12(2)9-14(16)4/h5-10H,1-4H3,(H,18,19)

> <PUBCHEM_IUPAC_INCHIKEY>
PTYFVSRWMFKHSN-UHFFFAOYSA-N

> <PUBCHEM_XLOGP3>
4.4

> <PUBCHEM_EXACT_MASS>
253.146664

> <PUBCHEM_MOLECULAR_FORMULA>
C17H19NO

> <PUBCHEM_MOLECULAR_WEIGHT>
253.33886

> <PUBCHEM_OPENEYE_CAN_SMILES>
CC1=CC(=CC=C1)NC(=O)C2=C(C=C(C=C2C)C)C

> <PUBCHEM_OPENEYE_ISO_SMILES>
CC1=CC(=CC=C1)NC(=O)C2=C(C=C(C=C2C)C)C

> <PUBCHEM_CACTVS_TPSA>
29.1

> <PUBCHEM_MONOISOTOPIC_WEIGHT>
253.146664

> <PUBCHEM_TOTAL_CHARGE>
0

> <PUBCHEM_HEAVY_ATOM_COUNT>
19

> <PUBCHEM_ATOM_DEF_STEREO_COUNT>
0

> <PUBCHEM_ATOM_UDEF_STEREO_COUNT>
0

> <PUBCHEM_BOND_DEF_STEREO_COUNT>
0

> <PUBCHEM_BOND_UDEF_STEREO_COUNT>
0

> <PUBCHEM_ISOTOPIC_ATOM_COUNT>
0

> <PUBCHEM_COMPONENT_COUNT>
1

> <PUBCHEM_CACTVS_TAUTO_COUNT>
5

> <PUBCHEM_COORDINATE_TYPE>
1
5
255

> <PUBCHEM_BONDANNOTATIONS>
12  14  8
12  16  8
14  15  8
15  17  8
16  18  8
17  18  8
3  4  8
3  5  8
4  7  8
5  8  8
6  7  8
6  8  8

$$$$
40204412
  -OEChem-03061303122D

 57 59  0     0  0  0  0  0  0999 V2000
    7.9244   -0.9956    0.0000 O   0  0  0  0  0  0  0  0  0  0  0  0
    9.1671    2.8065    0.0000 N   0  3  0  0  0  0  0  0  0  0  0  0
    7.5673    0.6993    0.0000 N   0  0  0  0  0  0  0  0  0  0  0  0
    4.6783   -4.1742    0.0000 N   0  0  0  0  0  0  0  0  0  0  0  0
    8.8564    1.8560    0.0000 C   0  0  0  0  0  0  0  0  0  0  0  0
    9.9114    3.4744    0.0000 C   0  0  0  0  0  0  0  0  0  0  0  0
    8.2166    3.1172    0.0000 C   0  0  0  0  0  0  0  0  0  0  0  0
    8.0104    4.0957    0.0000 C   0  0  0  0  0  0  0  0  0  0  0  0
    9.7052    4.4529    0.0000 C   0  0  0  0  0  0  0  0  0  0  0  0
    8.7547    4.7635    0.0000 C   0  0  0  0  0  0  0  0  0  0  0  0
    8.5458    0.9055    0.0000 C   0  0  0  0  0  0  0  0  0  0  0  0
    9.6434    1.2390    0.0000 C   0  0  0  0  0  0  0  0  0  0  0  0
    7.9059    2.1667    0.0000 C   0  0  0  0  0  0  0  0  0  0  0  0
    7.2566   -0.2513    0.0000 C   0  0  0  0  0  0  0  0  0  0  0  0
    6.2781   -0.4575    0.0000 C   0  0  0  0  0  0  0  0  0  0  0  0
    5.9674   -1.4080    0.0000 C   0  0  0  0  0  0  0  0  0  0  0  0
    4.9889   -1.6142    0.0000 C   0  0  0  0  0  0  0  0  0  0  0  0
    4.6783   -2.5647    0.0000 C   0  0  0  0  0  0  0  0  0  0  0  0
    3.7320   -2.8695    0.0000 C   0  0  0  0  0  0  0  0  0  0  0  0
    5.2619   -3.3695    0.0000 C   0  0  0  0  0  0  0  0  0  0  0  0
    3.7320   -3.8695    0.0000 C   0  0  0  0  0  0  0  0  0  0  0  0
    2.8660   -2.3695    0.0000 C   0  0  0  0  0  0  0  0  0  0  0  0
    2.8660   -4.3695    0.0000 C   0  0  0  0  0  0  0  0  0  0  0  0
    2.0000   -2.8695    0.0000 C   0  0  0  0  0  0  0  0  0  0  0  0
    2.0000   -3.8695    0.0000 C   0  0  0  0  0  0  0  0  0  0  0  0
   10.0492    2.3355    0.0000 H   0  0  0  0  0  0  0  0  0  0  0  0
   10.2390    2.9480    0.0000 H   0  0  0  0  0  0  0  0  0  0  0  0
   10.4867    3.7056    0.0000 H   0  0  0  0  0  0  0  0  0  0  0  0
    7.5969    3.0966    0.0000 H   0  0  0  0  0  0  0  0  0  0  0  0
    8.1292    2.5034    0.0000 H   0  0  0  0  0  0  0  0  0  0  0  0
   10.3248    4.4734    0.0000 H   0  0  0  0  0  0  0  0  0  0  0  0
    9.7925    5.0667    0.0000 H   0  0  0  0  0  0  0  0  0  0  0  0
    7.6827    4.6220    0.0000 H   0  0  0  0  0  0  0  0  0  0  0  0
    7.4351    3.8644    0.0000 H   0  0  0  0  0  0  0  0  0  0  0  0
    9.0467    5.3104    0.0000 H   0  0  0  0  0  0  0  0  0  0  0  0
    8.2668    5.1461    0.0000 H   0  0  0  0  0  0  0  0  0  0  0  0
    8.5663    0.2858    0.0000 H   0  0  0  0  0  0  0  0  0  0  0  0
    9.1596    0.8181    0.0000 H   0  0  0  0  0  0  0  0  0  0  0  0
    9.2608    0.7511    0.0000 H   0  0  0  0  0  0  0  0  0  0  0  0
   10.1313    0.8564    0.0000 H   0  0  0  0  0  0  0  0  0  0  0  0
   10.0259    1.7269    0.0000 H   0  0  0  0  0  0  0  0  0  0  0  0
    8.0985    2.7560    0.0000 H   0  0  0  0  0  0  0  0  0  0  0  0
    7.3166    2.3593    0.0000 H   0  0  0  0  0  0  0  0  0  0  0  0
    7.7133    1.5773    0.0000 H   0  0  0  0  0  0  0  0  0  0  0  0
    7.1532    1.1607    0.0000 H   0  0  0  0  0  0  0  0  0  0  0  0
    6.2575    0.1622    0.0000 H   0  0  0  0  0  0  0  0  0  0  0  0
    5.6643   -0.3701    0.0000 H   0  0  0  0  0  0  0  0  0  0  0  0
    5.9880   -2.0277    0.0000 H   0  0  0  0  0  0  0  0  0  0  0  0
    6.5812   -1.4954    0.0000 H   0  0  0  0  0  0  0  0  0  0  0  0
    4.9684   -0.9946    0.0000 H   0  0  0  0  0  0  0  0  0  0  0  0
    4.3751   -1.5269    0.0000 H   0  0  0  0  0  0  0  0  0  0  0  0
    5.8819   -3.3695    0.0000 H   0  0  0  0  0  0  0  0  0  0  0  0
    4.8709   -4.7635    0.0000 H   0  0  0  0  0  0  0  0  0  0  0  0
    2.8660   -1.7495    0.0000 H   0  0  0  0  0  0  0  0  0  0  0  0
    2.8660   -4.9895    0.0000 H   0  0  0  0  0  0  0  0  0  0  0  0
    1.4631   -2.5595    0.0000 H   0  0  0  0  0  0  0  0  0  0  0  0
    1.4631   -4.1795    0.0000 H   0  0  0  0  0  0  0  0  0  0  0  0
  1 14  2  0  0  0  0
  2  5  1  0  0  0  0
  2  6  1  0  0  0  0
  2  7  1  0  0  0  0
  2 26  1  0  0  0  0
  3 11  1  0  0  0  0
  3 14  1  0  0  0  0
  3 45  1  0  0  0  0
  4 20  1  0  0  0  0
  4 21  1  0  0  0  0
  4 53  1  0  0  0  0
  5 11  1  0  0  0  0
  5 12  1  0  0  0  0
  5 13  1  0  0  0  0
  6  9  1  0  0  0  0
  6 27  1  0  0  0  0
  6 28  1  0  0  0  0
  7  8  1  0  0  0  0
  7 29  1  0  0  0  0
  7 30  1  0  0  0  0
  8 10  1  0  0  0  0
  8 33  1  0  0  0  0
  8 34  1  0  0  0  0
  9 10  1  0  0  0  0
  9 31  1  0  0  0  0
  9 32  1  0  0  0  0
 10 35  1  0  0  0  0
 10 36  1  0  0  0  0
 11 37  1  0  0  0  0
 11 38  1  0  0  0  0
 12 39  1  0  0  0  0
 12 40  1  0  0  0  0
 12 41  1  0  0  0  0
 13 42  1  0  0  0  0
 13 43  1  0  0  0  0
 13 44  1  0  0  0  0
 14 15  1  0  0  0  0
 15 16  1  0  0  0  0
 15 46  1  0  0  0  0
 15 47  1  0  0  0  0
 16 17  1  0  0  0  0
 16 48  1  0  0  0  0
 16 49  1  0  0  0  0
 17 18  1  0  0  0  0
 17 50  1  0  0  0  0
 17 51  1  0  0  0  0
 18 19  1  0  0  0  0
 18 20  2  0  0  0  0
 19 21  1  0  0  0  0
 19 22  2  0  0  0  0
 20 52  1  0  0  0  0
 21 23  2  0  0  0  0
 22 24  1  0  0  0  0
 22 54  1  0  0  0  0
 23 25  1  0  0  0  0
 23 55  1  0  0  0  0
 24 25  2  0  0  0  0
 24 56  1  0  0  0  0
 25 57  1  0  0  0  0
M  CHG  1   2   1
M  END
> <PUBCHEM_COMPOUND_CID>
40204412

> <PUBCHEM_COMPOUND_CANONICALIZED>
1

> <PUBCHEM_CACTVS_COMPLEXITY>
431

> <PUBCHEM_CACTVS_HBOND_ACCEPTOR>
1

> <PUBCHEM_CACTVS_HBOND_DONOR>
3

> <PUBCHEM_CACTVS_ROTATABLE_BOND>
7

> <PUBCHEM_CACTVS_SUBSKEYS>
AAADcfB7IAAAAAAAAAAAAAAAAAAAAWAAAAA8QAAAAAAAAFgB8AAAHgAQAAAADIjBngQ+wPPJkACoAzV3VACCgCAxAiAI2aE4ZJgIYPLAkZGUIAhglgDIyAcYiMCOgAAAAAACAAAAAAAAAAQAAAAAAAAAAA==

> <PUBCHEM_IUPAC_OPENEYE_NAME>
4-(1H-indol-3-yl)-N-(2-methyl-2-piperidin-1-ium-1-yl-propyl)butanamide

> <PUBCHEM_IUPAC_CAS_NAME>
4-(1H-indol-3-yl)-N-[2-methyl-2-(1-piperidin-1-iumyl)propyl]butanamide

> <PUBCHEM_IUPAC_NAME>
4-(1H-indol-3-yl)-N-(2-methyl-2-piperidin-1-ium-1-ylpropyl)butanamide

> <PUBCHEM_IUPAC_SYSTEMATIC_NAME>
4-(1H-indol-3-yl)-N-(2-methyl-2-piperidin-1-ium-1-yl-propyl)butanamide

> <PUBCHEM_IUPAC_TRADITIONAL_NAME>
4-(1H-indol-3-yl)-N-(2-methyl-2-piperidin-1-ium-1-yl-propyl)butyramide

> <PUBCHEM_IUPAC_INCHI>
InChI=1S/C21H31N3O/c1-21(2,24-13-6-3-7-14-24)16-23-20(25)12-8-9-17-15-22-19-11-5-4-10-18(17)19/h4-5,10-11,15,22H,3,6-9,12-14,16H2,1-2H3,(H,23,25)/p+1

> <PUBCHEM_IUPAC_INCHIKEY>
GTBFKFSBHYWDBT-UHFFFAOYSA-O

> <PUBCHEM_XLOGP3>
3.6

> <PUBCHEM_EXACT_MASS>
342.254538

> <PUBCHEM_MOLECULAR_FORMULA>
C21H32N3O+

> <PUBCHEM_MOLECULAR_WEIGHT>
342.49828

> <PUBCHEM_OPENEYE_CAN_SMILES>
CC(C)(CNC(=O)CCCC1=CNC2=CC=CC=C21)[NH+]3CCCCC3

> <PUBCHEM_OPENEYE_ISO_SMILES>
CC(C)(CNC(=O)CCCC1=CNC2=CC=CC=C21)[NH+]3CCCCC3

> <PUBCHEM_CACTVS_TPSA>
49.3

> <PUBCHEM_MONOISOTOPIC_WEIGHT>
342.254538

> <PUBCHEM_TOTAL_CHARGE>
1

> <PUBCHEM_HEAVY_ATOM_COUNT>
25

> <PUBCHEM_ATOM_DEF_STEREO_COUNT>
0

> <PUBCHEM_ATOM_UDEF_STEREO_COUNT>
0

> <PUBCHEM_BOND_DEF_STEREO_COUNT>
0

> <PUBCHEM_BOND_UDEF_STEREO_COUNT>
0

> <PUBCHEM_ISOTOPIC_ATOM_COUNT>
0

> <PUBCHEM_COMPONENT_COUNT>
1

> <PUBCHEM_CACTVS_TAUTO_COUNT>
2

> <PUBCHEM_COORDINATE_TYPE>
1
5
255

> <PUBCHEM_BONDANNOTATIONS>
18  19  8
18  20  8
19  21  8
19  22  8
21  23  8
22  24  8
23  25  8
24  25  8
4  20  8
4  21  8

$$$$
40217537
  -OEChem-03061303122D

 28 28  0     0  0  0  0  0  0999 V2000
    2.0000   -0.5000    0.0000 Cl  0  0  0  0  0  0  0  0  0  0  0  0
    5.4641    0.5000    0.0000 O   0  0  0  0  0  0  0  0  0  0  0  0
    3.7320    0.5000    0.0000 N   0  0  0  0  0  0  0  0  0  0  0  0
    4.5981    2.0000    0.0000 C   0  0  0  0  0  0  0  0  0  0  0  0
    5.4641    2.5000    0.0000 C   0  0  0  0  0  0  0  0  0  0  0  0
    3.7320   -0.5000    0.0000 C   0  0  0  0  0  0  0  0  0  0  0  0
    4.5981    1.0000    0.0000 C   0  0  0  0  0  0  0  0  0  0  0  0
    3.7320   -2.5000    0.0000 C   0  0  0  0  0  0  0  0  0  0  0  0
    5.4641    3.5000    0.0000 C   0  0  0  0  0  0  0  0  0  0  0  0
    2.8660   -1.0000    0.0000 C   0  0  0  0  0  0  0  0  0  0  0  0
    4.5981   -1.0000    0.0000 C   0  0  0  0  0  0  0  0  0  0  0  0
    2.8660   -2.0000    0.0000 C   0  0  0  0  0  0  0  0  0  0  0  0
    4.5981   -2.0000    0.0000 C   0  0  0  0  0  0  0  0  0  0  0  0
    3.7320   -3.5000    0.0000 C   0  0  0  0  0  0  0  0  0  0  0  0
    4.3860    2.5826    0.0000 H   0  0  0  0  0  0  0  0  0  0  0  0
    3.9875    1.8923    0.0000 H   0  0  0  0  0  0  0  0  0  0  0  0
    5.6762    1.9174    0.0000 H   0  0  0  0  0  0  0  0  0  0  0  0
    6.0747    2.6077    0.0000 H   0  0  0  0  0  0  0  0  0  0  0  0
    3.1951    0.8100    0.0000 H   0  0  0  0  0  0  0  0  0  0  0  0
    6.0841    3.5000    0.0000 H   0  0  0  0  0  0  0  0  0  0  0  0
    5.4641    4.1200    0.0000 H   0  0  0  0  0  0  0  0  0  0  0  0
    4.8441    3.5000    0.0000 H   0  0  0  0  0  0  0  0  0  0  0  0
    5.1350   -0.6900    0.0000 H   0  0  0  0  0  0  0  0  0  0  0  0
    2.3291   -2.3100    0.0000 H   0  0  0  0  0  0  0  0  0  0  0  0
    5.1350   -2.3100    0.0000 H   0  0  0  0  0  0  0  0  0  0  0  0
    3.1120   -3.5000    0.0000 H   0  0  0  0  0  0  0  0  0  0  0  0
    3.7320   -4.1200    0.0000 H   0  0  0  0  0  0  0  0  0  0  0  0
    4.3520   -3.5000    0.0000 H   0  0  0  0  0  0  0  0  0  0  0  0
  1 10  1  0  0  0  0
  2  7  2  0  0  0  0
  3  6  1  0  0  0  0
  3  7  1  0  0  0  0
  3 19  1  0  0  0  0
  4  5  1  0  0  0  0
  4  7  1  0  0  0  0
  4 15  1  0  0  0  0
  4 16  1  0  0  0  0
  5  9  1  0  0  0  0
  5 17  1  0  0  0  0
  5 18  1  0  0  0  0
  6 10  2  0  0  0  0
  6 11  1  0  0  0  0
  8 12  2  0  0  0  0
  8 13  1  0  0  0  0
  8 14  1  0  0  0  0
  9 20  1  0  0  0  0
  9 21  1  0  0  0  0
  9 22  1  0  0  0  0
 10 12  1  0  0  0  0
 11 13  2  0  0  0  0
 11 23  1  0  0  0  0
 12 24  1  0  0  0  0
 13 25  1  0  0  0  0
 14 26  1  0  0  0  0
 14 27  1  0  0  0  0
 14 28  1  0  0  0  0
M  END
> <PUBCHEM_COMPOUND_CID>
40217537

> <PUBCHEM_COMPOUND_CANONICALIZED>
1

> <PUBCHEM_CACTVS_COMPLEXITY>
196

> <PUBCHEM_CACTVS_HBOND_ACCEPTOR>
1

> <PUBCHEM_CACTVS_HBOND_DONOR>
1

> <PUBCHEM_CACTVS_ROTATABLE_BOND>
3

> <PUBCHEM_CACTVS_SUBSKEYS>
AAADccByIAAEAAAAAAAAAAAAAAAAAAAAAAAwAAAAAAAAAAABAAAAHgIQAAAADAqBmCAywILAAACIAiVSUACCAAAhBwAIiAEAZogIIDLBk5HEIAhglADIyAcQgAAOCAAAIAAAABAQAABAAAAAIAAAAAAAAA==

> <PUBCHEM_IUPAC_OPENEYE_NAME>
N-(2-chloro-4-methyl-phenyl)butanamide

> <PUBCHEM_IUPAC_CAS_NAME>
N-(2-chloro-4-methylphenyl)butanamide

> <PUBCHEM_IUPAC_NAME>
N-(2-chloro-4-methylphenyl)butanamide

> <PUBCHEM_IUPAC_SYSTEMATIC_NAME>
N-(2-chloranyl-4-methyl-phenyl)butanamide

> <PUBCHEM_IUPAC_TRADITIONAL_NAME>
N-(2-chloro-4-methyl-phenyl)butyramide

> <PUBCHEM_IUPAC_INCHI>
InChI=1S/C11H14ClNO/c1-3-4-11(14)13-10-6-5-8(2)7-9(10)12/h5-7H,3-4H2,1-2H3,(H,13,14)

> <PUBCHEM_IUPAC_INCHIKEY>
HTZROLLPMHLVAY-UHFFFAOYSA-N

> <PUBCHEM_XLOGP3>
3.2

> <PUBCHEM_EXACT_MASS>
211.076392

> <PUBCHEM_MOLECULAR_FORMULA>
C11H14ClNO

> <PUBCHEM_MOLECULAR_WEIGHT>
211.68796

> <PUBCHEM_OPENEYE_CAN_SMILES>
CCCC(=O)NC1=C(C=C(C=C1)C)Cl

> <PUBCHEM_OPENEYE_ISO_SMILES>
CCCC(=O)NC1=C(C=C(C=C1)C)Cl

> <PUBCHEM_CACTVS_TPSA>
29.1

> <PUBCHEM_MONOISOTOPIC_WEIGHT>
211.076392

> <PUBCHEM_TOTAL_CHARGE>
0

> <PUBCHEM_HEAVY_ATOM_COUNT>
14

> <PUBCHEM_ATOM_DEF_STEREO_COUNT>
0

> <PUBCHEM_ATOM_UDEF_STEREO_COUNT>
0

> <PUBCHEM_BOND_DEF_STEREO_COUNT>
0

> <PUBCHEM_BOND_UDEF_STEREO_COUNT>
0

> <PUBCHEM_ISOTOPIC_ATOM_COUNT>
0

> <PUBCHEM_COMPONENT_COUNT>
1

> <PUBCHEM_CACTVS_TAUTO_COUNT>
3

> <PUBCHEM_COORDINATE_TYPE>
1
5
255

> <PUBCHEM_BONDANNOTATIONS>
10  12  8
11  13  8
6  10  8
6  11  8
8  12  8
8  13  8

$$$$
40217831
  -OEChem-03061303122D

 48 50  0     0  0  0  0  0  0999 V2000
    5.6103    0.2117    0.0000 O   0  0  0  0  0  0  0  0  0  0  0  0
    4.6783   -4.2493    0.0000 N   0  0  0  0  0  0  0  0  0  0  0  0
    7.2566   -0.3264    0.0000 N   0  0  0  0  0  0  0  0  0  0  0  0
    4.6783   -2.6399    0.0000 C   0  0  0  0  0  0  0  0  0  0  0  0
    4.9889   -1.6893    0.0000 C   0  0  0  0  0  0  0  0  0  0  0  0
    3.7320   -2.9446    0.0000 C   0  0  0  0  0  0  0  0  0  0  0  0
    5.9674   -1.4831    0.0000 C   0  0  0  0  0  0  0  0  0  0  0  0
    3.7320   -3.9446    0.0000 C   0  0  0  0  0  0  0  0  0  0  0  0
    8.4993    3.4757    0.0000 C   0  0  0  0  0  0  0  0  0  0  0  0
    9.4778    3.6819    0.0000 C   0  0  0  0  0  0  0  0  0  0  0  0
    5.2619   -3.4446    0.0000 C   0  0  0  0  0  0  0  0  0  0  0  0
    8.1886    2.5252    0.0000 C   0  0  0  0  0  0  0  0  0  0  0  0
    9.7884    4.6324    0.0000 C   0  0  0  0  0  0  0  0  0  0  0  0
    2.8660   -2.4446    0.0000 C   0  0  0  0  0  0  0  0  0  0  0  0
    6.2781   -0.5326    0.0000 C   0  0  0  0  0  0  0  0  0  0  0  0
    7.5673    0.6241    0.0000 C   0  0  0  0  0  0  0  0  0  0  0  0
    2.8660   -4.4446    0.0000 C   0  0  0  0  0  0  0  0  0  0  0  0
    7.2101    2.3190    0.0000 C   0  0  0  0  0  0  0  0  0  0  0  0
    8.8564    1.7809    0.0000 C   0  0  0  0  0  0  0  0  0  0  0  0
    6.8994    1.3684    0.0000 C   0  0  0  0  0  0  0  0  0  0  0  0
    8.5458    0.8304    0.0000 C   0  0  0  0  0  0  0  0  0  0  0  0
    2.0000   -2.9446    0.0000 C   0  0  0  0  0  0  0  0  0  0  0  0
    2.0000   -3.9446    0.0000 C   0  0  0  0  0  0  0  0  0  0  0  0
   10.7669    4.8386    0.0000 C   0  0  0  0  0  0  0  0  0  0  0  0
    4.9684   -1.0697    0.0000 H   0  0  0  0  0  0  0  0  0  0  0  0
    4.3751   -1.6020    0.0000 H   0  0  0  0  0  0  0  0  0  0  0  0
    5.9880   -2.1028    0.0000 H   0  0  0  0  0  0  0  0  0  0  0  0
    6.5812   -1.5705    0.0000 H   0  0  0  0  0  0  0  0  0  0  0  0
    8.4787    4.0954    0.0000 H   0  0  0  0  0  0  0  0  0  0  0  0
    7.8854    3.5630    0.0000 H   0  0  0  0  0  0  0  0  0  0  0  0
    9.4983    3.0622    0.0000 H   0  0  0  0  0  0  0  0  0  0  0  0
   10.0916    3.5946    0.0000 H   0  0  0  0  0  0  0  0  0  0  0  0
    5.8819   -3.4446    0.0000 H   0  0  0  0  0  0  0  0  0  0  0  0
    4.8709   -4.8386    0.0000 H   0  0  0  0  0  0  0  0  0  0  0  0
    9.7679    5.2521    0.0000 H   0  0  0  0  0  0  0  0  0  0  0  0
    9.1746    4.7198    0.0000 H   0  0  0  0  0  0  0  0  0  0  0  0
    2.8660   -1.8246    0.0000 H   0  0  0  0  0  0  0  0  0  0  0  0
    2.8660   -5.0646    0.0000 H   0  0  0  0  0  0  0  0  0  0  0  0
    6.7960    2.7804    0.0000 H   0  0  0  0  0  0  0  0  0  0  0  0
    9.4631    1.9087    0.0000 H   0  0  0  0  0  0  0  0  0  0  0  0
    7.6707   -0.7879    0.0000 H   0  0  0  0  0  0  0  0  0  0  0  0
    6.2928    1.2406    0.0000 H   0  0  0  0  0  0  0  0  0  0  0  0
    8.9598    0.3689    0.0000 H   0  0  0  0  0  0  0  0  0  0  0  0
    1.4631   -2.6346    0.0000 H   0  0  0  0  0  0  0  0  0  0  0  0
    1.4631   -4.2546    0.0000 H   0  0  0  0  0  0  0  0  0  0  0  0
   10.8948    4.2320    0.0000 H   0  0  0  0  0  0  0  0  0  0  0  0
   11.3736    4.9665    0.0000 H   0  0  0  0  0  0  0  0  0  0  0  0
   10.6391    5.4453    0.0000 H   0  0  0  0  0  0  0  0  0  0  0  0
  1 15  2  0  0  0  0
  2  8  1  0  0  0  0
  2 11  1  0  0  0  0
  2 34  1  0  0  0  0
  3 15  1  0  0  0  0
  3 16  1  0  0  0  0
  3 41  1  0  0  0  0
  4  5  1  0  0  0  0
  4  6  1  0  0  0  0
  4 11  2  0  0  0  0
  5  7  1  0  0  0  0
  5 25  1  0  0  0  0
  5 26  1  0  0  0  0
  6  8  1  0  0  0  0
  6 14  2  0  0  0  0
  7 15  1  0  0  0  0
  7 27  1  0  0  0  0
  7 28  1  0  0  0  0
  8 17  2  0  0  0  0
  9 10  1  0  0  0  0
  9 12  1  0  0  0  0
  9 29  1  0  0  0  0
  9 30  1  0  0  0  0
 10 13  1  0  0  0  0
 10 31  1  0  0  0  0
 10 32  1  0  0  0  0
 11 33  1  0  0  0  0
 12 18  2  0  0  0  0
 12 19  1  0  0  0  0
 13 24  1  0  0  0  0
 13 35  1  0  0  0  0
 13 36  1  0  0  0  0
 14 22  1  0  0  0  0
 14 37  1  0  0  0  0
 16 20  2  0  0  0  0
 16 21  1  0  0  0  0
 17 23  1  0  0  0  0
 17 38  1  0  0  0  0
 18 20  1  0  0  0  0
 18 39  1  0  0  0  0
 19 21  2  0  0  0  0
 19 40  1  0  0  0  0
 20 42  1  0  0  0  0
 21 43  1  0  0  0  0
 22 23  2  0  0  0  0
 22 44  1  0  0  0  0
 23 45  1  0  0  0  0
 24 46  1  0  0  0  0
 24 47  1  0  0  0  0
 24 48  1  0  0  0  0
M  END
> <PUBCHEM_COMPOUND_CID>
40217831

> <PUBCHEM_COMPOUND_CANONICALIZED>
1

> <PUBCHEM_CACTVS_COMPLEXITY>
389

> <PUBCHEM_CACTVS_HBOND_ACCEPTOR>
1

> <PUBCHEM_CACTVS_HBOND_DONOR>
2

> <PUBCHEM_CACTVS_ROTATABLE_BOND>
7

> <PUBCHEM_CACTVS_SUBSKEYS>
AAADceB7IAAAAAAAAAAAAAAAAAAAAWAAAAAwYAAAAAAAAFgB9AAAHgAQAAAADAjBngQ+wPLJkACoAzV3VACCgCAxAiAI2aE4ZJgIIPLAkZGEIAhglADIyAcYicCOiAAAAAACAAAQAAAAAAQAAAAAAAAAAA==

> <PUBCHEM_IUPAC_OPENEYE_NAME>
N-(4-butylphenyl)-3-(1H-indol-3-yl)propanamide

> <PUBCHEM_IUPAC_CAS_NAME>
N-(4-butylphenyl)-3-(1H-indol-3-yl)propanamide

> <PUBCHEM_IUPAC_NAME>
N-(4-butylphenyl)-3-(1H-indol-3-yl)propanamide

> <PUBCHEM_IUPAC_SYSTEMATIC_NAME>
N-(4-butylphenyl)-3-(1H-indol-3-yl)propanamide

> <PUBCHEM_IUPAC_TRADITIONAL_NAME>
N-(4-butylphenyl)-3-(1H-indol-3-yl)propionamide

> <PUBCHEM_IUPAC_INCHI>
InChI=1S/C21H24N2O/c1-2-3-6-16-9-12-18(13-10-16)23-21(24)14-11-17-15-22-20-8-5-4-7-19(17)20/h4-5,7-10,12-13,15,22H,2-3,6,11,14H2,1H3,(H,23,24)

> <PUBCHEM_IUPAC_INCHIKEY>
ZOTFLQMGTFOVGR-UHFFFAOYSA-N

> <PUBCHEM_XLOGP3>
4.9

> <PUBCHEM_EXACT_MASS>
320.188863

> <PUBCHEM_MOLECULAR_FORMULA>
C21H24N2O

> <PUBCHEM_MOLECULAR_WEIGHT>
320.42806

> <PUBCHEM_OPENEYE_CAN_SMILES>
CCCCC1=CC=C(C=C1)NC(=O)CCC2=CNC3=CC=CC=C32

> <PUBCHEM_OPENEYE_ISO_SMILES>
CCCCC1=CC=C(C=C1)NC(=O)CCC2=CNC3=CC=CC=C32

> <PUBCHEM_CACTVS_TPSA>
44.9

> <PUBCHEM_MONOISOTOPIC_WEIGHT>
320.188863

> <PUBCHEM_TOTAL_CHARGE>
0

> <PUBCHEM_HEAVY_ATOM_COUNT>
24

> <PUBCHEM_ATOM_DEF_STEREO_COUNT>
0

> <PUBCHEM_ATOM_UDEF_STEREO_COUNT>
0

> <PUBCHEM_BOND_DEF_STEREO_COUNT>
0

> <PUBCHEM_BOND_UDEF_STEREO_COUNT>
0

> <PUBCHEM_ISOTOPIC_ATOM_COUNT>
0

> <PUBCHEM_COMPONENT_COUNT>
1

> <PUBCHEM_CACTVS_TAUTO_COUNT>
3

> <PUBCHEM_COORDINATE_TYPE>
1
5
255

> <PUBCHEM_BONDANNOTATIONS>
12  18  8
12  19  8
14  22  8
16  20  8
16  21  8
17  23  8
18  20  8
19  21  8
2  11  8
2  8  8
22  23  8
4  11  8
4  6  8
6  14  8
6  8  8
8  17  8

$$$$
