54932310
  -OEChem-11301218072D

 39 41  0     0  0  0  0  0  0999 V2000
    5.4071   -0.0724    0.0000 O   0  0  0  0  0  0  0  0  0  0  0  0
    3.6750   -0.0724    0.0000 N   0  0  0  0  0  0  0  0  0  0  0  0
    6.3533   -3.3771    0.0000 N   0  0  0  0  0  0  0  0  0  0  0  0
    2.8090    2.4276    0.0000 C   0  0  0  0  0  0  0  0  0  0  0  0
    3.6180    3.0154    0.0000 C   0  0  0  0  0  0  0  0  0  0  0  0
    2.0000    3.0154    0.0000 C   0  0  0  0  0  0  0  0  0  0  0  0
    3.3090    3.9664    0.0000 C   0  0  0  0  0  0  0  0  0  0  0  0
    2.3090    3.9664    0.0000 C   0  0  0  0  0  0  0  0  0  0  0  0
    2.8090    1.4276    0.0000 C   0  0  0  0  0  0  0  0  0  0  0  0
    3.6750    0.9276    0.0000 C   0  0  0  0  0  0  0  0  0  0  0  0
    4.5411   -0.5724    0.0000 C   0  0  0  0  0  0  0  0  0  0  0  0
    4.5411   -1.5724    0.0000 C   0  0  0  0  0  0  0  0  0  0  0  0
    5.4071   -2.0724    0.0000 C   0  0  0  0  0  0  0  0  0  0  0  0
    5.4071   -3.0724    0.0000 C   0  0  0  0  0  0  0  0  0  0  0  0
    3.6750   -2.0724    0.0000 C   0  0  0  0  0  0  0  0  0  0  0  0
    6.3533   -1.7677    0.0000 C   0  0  0  0  0  0  0  0  0  0  0  0
    4.5411   -3.5724    0.0000 C   0  0  0  0  0  0  0  0  0  0  0  0
    3.6750   -3.0724    0.0000 C   0  0  0  0  0  0  0  0  0  0  0  0
    6.9369   -2.5724    0.0000 C   0  0  0  0  0  0  0  0  0  0  0  0
    3.3614    2.1461    0.0000 H   0  0  0  0  0  0  0  0  0  0  0  0
    3.9280    2.4785    0.0000 H   0  0  0  0  0  0  0  0  0  0  0  0
    4.1844    3.2676    0.0000 H   0  0  0  0  0  0  0  0  0  0  0  0
    1.4336    3.2676    0.0000 H   0  0  0  0  0  0  0  0  0  0  0  0
    1.6900    2.4785    0.0000 H   0  0  0  0  0  0  0  0  0  0  0  0
    2.3738    4.5830    0.0000 H   0  0  0  0  0  0  0  0  0  0  0  0
    1.7026    4.0954    0.0000 H   0  0  0  0  0  0  0  0  0  0  0  0
    3.9155    4.0954    0.0000 H   0  0  0  0  0  0  0  0  0  0  0  0
    3.2442    4.5830    0.0000 H   0  0  0  0  0  0  0  0  0  0  0  0
    2.1984    1.5353    0.0000 H   0  0  0  0  0  0  0  0  0  0  0  0
    2.5970    0.8450    0.0000 H   0  0  0  0  0  0  0  0  0  0  0  0
    4.2856    0.8199    0.0000 H   0  0  0  0  0  0  0  0  0  0  0  0
    3.8871    1.5102    0.0000 H   0  0  0  0  0  0  0  0  0  0  0  0
    3.1381   -0.3824    0.0000 H   0  0  0  0  0  0  0  0  0  0  0  0
    3.1381   -1.7624    0.0000 H   0  0  0  0  0  0  0  0  0  0  0  0
    6.5459   -1.1783    0.0000 H   0  0  0  0  0  0  0  0  0  0  0  0
    4.5411   -4.1924    0.0000 H   0  0  0  0  0  0  0  0  0  0  0  0
    6.5459   -3.9664    0.0000 H   0  0  0  0  0  0  0  0  0  0  0  0
    3.1381   -3.3824    0.0000 H   0  0  0  0  0  0  0  0  0  0  0  0
    7.5569   -2.5724    0.0000 H   0  0  0  0  0  0  0  0  0  0  0  0
  1 11  2  0  0  0  0
  2 10  1  0  0  0  0
  2 11  1  0  0  0  0
  2 33  1  0  0  0  0
  3 14  1  0  0  0  0
  3 19  1  0  0  0  0
  3 37  1  0  0  0  0
  4  5  1  0  0  0  0
  4  6  1  0  0  0  0
  4  9  1  0  0  0  0
  4 20  1  0  0  0  0
  5  7  1  0  0  0  0
  5 21  1  0  0  0  0
  5 22  1  0  0  0  0
  6  8  1  0  0  0  0
  6 23  1  0  0  0  0
  6 24  1  0  0  0  0
  7  8  1  0  0  0  0
  7 27  1  0  0  0  0
  7 28  1  0  0  0  0
  8 25  1  0  0  0  0
  8 26  1  0  0  0  0
  9 10  1  0  0  0  0
  9 29  1  0  0  0  0
  9 30  1  0  0  0  0
 10 31  1  0  0  0  0
 10 32  1  0  0  0  0
 11 12  1  0  0  0  0
 12 13  2  0  0  0  0
 12 15  1  0  0  0  0
 13 14  1  0  0  0  0
 13 16  1  0  0  0  0
 14 17  2  0  0  0  0
 15 18  2  0  0  0  0
 15 34  1  0  0  0  0
 16 19  2  0  0  0  0
 16 35  1  0  0  0  0
 17 18  1  0  0  0  0
 17 36  1  0  0  0  0
 18 38  1  0  0  0  0
 19 39  1  0  0  0  0
M  END
> <PUBCHEM_COMPOUND_CID>
54932310

> <PUBCHEM_COMPOUND_CANONICALIZED>
1

> <PUBCHEM_CACTVS_COMPLEXITY>
312

> <PUBCHEM_CACTVS_HBOND_ACCEPTOR>
1

> <PUBCHEM_CACTVS_HBOND_DONOR>
2

> <PUBCHEM_CACTVS_ROTATABLE_BOND>
4

> <PUBCHEM_CACTVS_SUBSKEYS>
AAADceB7IAAAAAAAAAAAAAAAAAAAAeIAAAAwAAAAAAAAAFgB8AAAHgAQAAAADQjBngQ8wPLJkACoAzV3VACCgCA1AiAI2aE4ZNgIIPLAlZGEIQhglgDIyYcciYCOgAAAQAASAAAAAACAACQAAAAAAAAAAA==

> <PUBCHEM_IUPAC_OPENEYE_NAME>
N-(2-cyclopentylethyl)-1H-indole-4-carboxamide

> <PUBCHEM_IUPAC_CAS_NAME>
N-(2-cyclopentylethyl)-1H-indole-4-carboxamide

> <PUBCHEM_IUPAC_NAME>
N-(2-cyclopentylethyl)-1H-indole-4-carboxamide

> <PUBCHEM_IUPAC_SYSTEMATIC_NAME>
N-(2-cyclopentylethyl)-1H-indole-4-carboxamide

> <PUBCHEM_IUPAC_TRADITIONAL_NAME>
N-(2-cyclopentylethyl)-1H-indole-4-carboxamide

> <PUBCHEM_IUPAC_INCHI>
InChI=1S/C16H20N2O/c19-16(18-10-8-12-4-1-2-5-12)14-6-3-7-15-13(14)9-11-17-15/h3,6-7,9,11-12,17H,1-2,4-5,8,10H2,(H,18,19)

> <PUBCHEM_IUPAC_INCHIKEY>
ZOTDGEZFGPVMKT-UHFFFAOYSA-N

> <PUBCHEM_XLOGP3>
3.6

> <PUBCHEM_EXACT_MASS>
256.157563

> <PUBCHEM_MOLECULAR_FORMULA>
C16H20N2O

> <PUBCHEM_MOLECULAR_WEIGHT>
256.3428

> <PUBCHEM_OPENEYE_CAN_SMILES>
C1CCC(C1)CCNC(=O)C2=C3C=CNC3=CC=C2

> <PUBCHEM_OPENEYE_ISO_SMILES>
C1CCC(C1)CCNC(=O)C2=C3C=CNC3=CC=C2

> <PUBCHEM_CACTVS_TPSA>
44.9

> <PUBCHEM_MONOISOTOPIC_WEIGHT>
256.157563

> <PUBCHEM_TOTAL_CHARGE>
0

> <PUBCHEM_HEAVY_ATOM_COUNT>
19

> <PUBCHEM_ATOM_DEF_STEREO_COUNT>
0

> <PUBCHEM_ATOM_UDEF_STEREO_COUNT>
0

> <PUBCHEM_BOND_DEF_STEREO_COUNT>
0

> <PUBCHEM_BOND_UDEF_STEREO_COUNT>
0

> <PUBCHEM_ISOTOPIC_ATOM_COUNT>
0

> <PUBCHEM_COMPONENT_COUNT>
1

> <PUBCHEM_CACTVS_TAUTO_COUNT>
5

> <PUBCHEM_COORDINATE_TYPE>
1
5
255

> <PUBCHEM_BONDANNOTATIONS>
12  13  8
12  15  8
13  14  8
13  16  8
14  17  8
15  18  8
16  19  8
17  18  8
3  14  8
3  19  8

$$$$
54940102
  -OEChem-11301218072D

 36 37  0     0  0  0  0  0  0999 V2000
    4.5981    0.2500    0.0000 N   0  0  0  0  0  0  0  0  0  0  0  0
    3.7320   -1.2500    0.0000 C   0  0  0  0  0  0  0  0  0  0  0  0
    3.7320   -0.2500    0.0000 C   0  0  0  0  0  0  0  0  0  0  0  0
    4.5981   -1.7500    0.0000 C   0  0  0  0  0  0  0  0  0  0  0  0
    2.8660   -1.7500    0.0000 C   0  0  0  0  0  0  0  0  0  0  0  0
    4.5981   -2.7500    0.0000 C   0  0  0  0  0  0  0  0  0  0  0  0
    2.8660   -2.7500    0.0000 C   0  0  0  0  0  0  0  0  0  0  0  0
    4.5981    1.2500    0.0000 C   0  0  0  0  0  0  0  0  0  0  0  0
    3.7320   -3.2500    0.0000 C   0  0  0  0  0  0  0  0  0  0  0  0
    5.4641    1.7500    0.0000 C   0  0  0  0  0  0  0  0  0  0  0  0
    3.7320    1.7500    0.0000 C   0  0  0  0  0  0  0  0  0  0  0  0
    5.4641   -3.2500    0.0000 C   0  0  0  0  0  0  0  0  0  0  0  0
    2.0000   -3.2500    0.0000 C   0  0  0  0  0  0  0  0  0  0  0  0
    5.4641    2.7500    0.0000 C   0  0  0  0  0  0  0  0  0  0  0  0
    6.3301    1.2500    0.0000 C   0  0  0  0  0  0  0  0  0  0  0  0
    3.7320    2.7500    0.0000 C   0  0  0  0  0  0  0  0  0  0  0  0
    4.5981    3.2500    0.0000 C   0  0  0  0  0  0  0  0  0  0  0  0
    3.5200    0.3326    0.0000 H   0  0  0  0  0  0  0  0  0  0  0  0
    3.1215   -0.3577    0.0000 H   0  0  0  0  0  0  0  0  0  0  0  0
    5.1350   -1.4400    0.0000 H   0  0  0  0  0  0  0  0  0  0  0  0
    2.3291   -1.4400    0.0000 H   0  0  0  0  0  0  0  0  0  0  0  0
    5.1350   -0.0600    0.0000 H   0  0  0  0  0  0  0  0  0  0  0  0
    3.7320   -3.8700    0.0000 H   0  0  0  0  0  0  0  0  0  0  0  0
    3.1951    1.4400    0.0000 H   0  0  0  0  0  0  0  0  0  0  0  0
    5.1541   -3.7869    0.0000 H   0  0  0  0  0  0  0  0  0  0  0  0
    6.0010   -3.5600    0.0000 H   0  0  0  0  0  0  0  0  0  0  0  0
    5.7741   -2.7131    0.0000 H   0  0  0  0  0  0  0  0  0  0  0  0
    1.6900   -2.7131    0.0000 H   0  0  0  0  0  0  0  0  0  0  0  0
    1.4631   -3.5600    0.0000 H   0  0  0  0  0  0  0  0  0  0  0  0
    2.3100   -3.7869    0.0000 H   0  0  0  0  0  0  0  0  0  0  0  0
    6.0010    3.0600    0.0000 H   0  0  0  0  0  0  0  0  0  0  0  0
    6.0201    0.7131    0.0000 H   0  0  0  0  0  0  0  0  0  0  0  0
    6.8671    0.9400    0.0000 H   0  0  0  0  0  0  0  0  0  0  0  0
    6.6401    1.7869    0.0000 H   0  0  0  0  0  0  0  0  0  0  0  0
    3.1951    3.0600    0.0000 H   0  0  0  0  0  0  0  0  0  0  0  0
    4.5981    3.8700    0.0000 H   0  0  0  0  0  0  0  0  0  0  0  0
  1  3  1  0  0  0  0
  1  8  1  0  0  0  0
  1 22  1  0  0  0  0
  2  3  1  0  0  0  0
  2  4  2  0  0  0  0
  2  5  1  0  0  0  0
  3 18  1  0  0  0  0
  3 19  1  0  0  0  0
  4  6  1  0  0  0  0
  4 20  1  0  0  0  0
  5  7  2  0  0  0  0
  5 21  1  0  0  0  0
  6  9  2  0  0  0  0
  6 12  1  0  0  0  0
  7  9  1  0  0  0  0
  7 13  1  0  0  0  0
  8 10  1  0  0  0  0
  8 11  2  0  0  0  0
  9 23  1  0  0  0  0
 10 14  2  0  0  0  0
 10 15  1  0  0  0  0
 11 16  1  0  0  0  0
 11 24  1  0  0  0  0
 12 25  1  0  0  0  0
 12 26  1  0  0  0  0
 12 27  1  0  0  0  0
 13 28  1  0  0  0  0
 13 29  1  0  0  0  0
 13 30  1  0  0  0  0
 14 17  1  0  0  0  0
 14 31  1  0  0  0  0
 15 32  1  0  0  0  0
 15 33  1  0  0  0  0
 15 34  1  0  0  0  0
 16 17  2  0  0  0  0
 16 35  1  0  0  0  0
 17 36  1  0  0  0  0
M  END
> <PUBCHEM_COMPOUND_CID>
54940102

> <PUBCHEM_COMPOUND_CANONICALIZED>
1

> <PUBCHEM_CACTVS_COMPLEXITY>
216

> <PUBCHEM_CACTVS_HBOND_ACCEPTOR>
1

> <PUBCHEM_CACTVS_HBOND_DONOR>
1

> <PUBCHEM_CACTVS_ROTATABLE_BOND>
3

> <PUBCHEM_CACTVS_SUBSKEYS>
AAADceB6AAAAAAAAAAAAAAAAAAAAAAAAAAAwYAAAAAAAAAABQAAAHAAQAAAADAjBGAQywILAAACAAiRCQACCAAAhAgAIiIAIZIgIICLAkZGEIAhgkADIyAcQgEAOAAACAAACAAAAAAQAAAQAAAAAAAAAAA==

> <PUBCHEM_IUPAC_OPENEYE_NAME>
N-[(3,5-dimethylphenyl)methyl]-2-methyl-aniline

> <PUBCHEM_IUPAC_CAS_NAME>
N-[(3,5-dimethylphenyl)methyl]-2-methylaniline

> <PUBCHEM_IUPAC_NAME>
N-[(3,5-dimethylphenyl)methyl]-2-methylaniline

> <PUBCHEM_IUPAC_SYSTEMATIC_NAME>
N-[(3,5-dimethylphenyl)methyl]-2-methyl-aniline

> <PUBCHEM_IUPAC_TRADITIONAL_NAME>
(3,5-dimethylbenzyl)-(o-tolyl)amine

> <PUBCHEM_IUPAC_INCHI>
InChI=1S/C16H19N/c1-12-8-13(2)10-15(9-12)11-17-16-7-5-4-6-14(16)3/h4-10,17H,11H2,1-3H3

> <PUBCHEM_IUPAC_INCHIKEY>
OULQJCANQSEILN-UHFFFAOYSA-N

> <PUBCHEM_XLOGP3>
4.4

> <PUBCHEM_EXACT_MASS>
225.15175

> <PUBCHEM_MOLECULAR_FORMULA>
C16H19N

> <PUBCHEM_MOLECULAR_WEIGHT>
225.32876

> <PUBCHEM_OPENEYE_CAN_SMILES>
CC1=CC=CC=C1NCC2=CC(=CC(=C2)C)C

> <PUBCHEM_OPENEYE_ISO_SMILES>
CC1=CC=CC=C1NCC2=CC(=CC(=C2)C)C

> <PUBCHEM_CACTVS_TPSA>
12

> <PUBCHEM_MONOISOTOPIC_WEIGHT>
225.15175

> <PUBCHEM_TOTAL_CHARGE>
0

> <PUBCHEM_HEAVY_ATOM_COUNT>
17

> <PUBCHEM_ATOM_DEF_STEREO_COUNT>
0

> <PUBCHEM_ATOM_UDEF_STEREO_COUNT>
0

> <PUBCHEM_BOND_DEF_STEREO_COUNT>
0

> <PUBCHEM_BOND_UDEF_STEREO_COUNT>
0

> <PUBCHEM_ISOTOPIC_ATOM_COUNT>
0

> <PUBCHEM_COMPONENT_COUNT>
1

> <PUBCHEM_CACTVS_TAUTO_COUNT>
1

> <PUBCHEM_COORDINATE_TYPE>
1
5
255

> <PUBCHEM_BONDANNOTATIONS>
10  14  8
11  16  8
14  17  8
16  17  8
2  4  8
2  5  8
4  6  8
5  7  8
6  9  8
7  9  8
8  10  8
8  11  8

$$$$
54940178
  -OEChem-11301218072D

 36 37  0     0  0  0  0  0  0999 V2000
    4.5981    0.2500    0.0000 N   0  0  0  0  0  0  0  0  0  0  0  0
    3.7320   -1.2500    0.0000 C   0  0  0  0  0  0  0  0  0  0  0  0
    3.7320   -0.2500    0.0000 C   0  0  0  0  0  0  0  0  0  0  0  0
    4.5981    1.2500    0.0000 C   0  0  0  0  0  0  0  0  0  0  0  0
    4.5981   -1.7500    0.0000 C   0  0  0  0  0  0  0  0  0  0  0  0
    2.8660   -1.7500    0.0000 C   0  0  0  0  0  0  0  0  0  0  0  0
    4.5981   -2.7500    0.0000 C   0  0  0  0  0  0  0  0  0  0  0  0
    2.8660   -2.7500    0.0000 C   0  0  0  0  0  0  0  0  0  0  0  0
    3.7320   -3.2500    0.0000 C   0  0  0  0  0  0  0  0  0  0  0  0
    5.4641    1.7500    0.0000 C   0  0  0  0  0  0  0  0  0  0  0  0
    5.4641   -3.2500    0.0000 C   0  0  0  0  0  0  0  0  0  0  0  0
    2.0000   -3.2500    0.0000 C   0  0  0  0  0  0  0  0  0  0  0  0
    5.4641    2.7500    0.0000 C   0  0  0  0  0  0  0  0  0  0  0  0
    6.3301    1.2500    0.0000 C   0  0  0  0  0  0  0  0  0  0  0  0
    6.3301    3.2500    0.0000 C   0  0  0  0  0  0  0  0  0  0  0  0
    7.1962    1.7500    0.0000 C   0  0  0  0  0  0  0  0  0  0  0  0
    7.1962    2.7500    0.0000 C   0  0  0  0  0  0  0  0  0  0  0  0
    3.5200    0.3326    0.0000 H   0  0  0  0  0  0  0  0  0  0  0  0
    3.1215   -0.3577    0.0000 H   0  0  0  0  0  0  0  0  0  0  0  0
    4.3860    1.8326    0.0000 H   0  0  0  0  0  0  0  0  0  0  0  0
    3.9875    1.1423    0.0000 H   0  0  0  0  0  0  0  0  0  0  0  0
    5.1350   -0.0600    0.0000 H   0  0  0  0  0  0  0  0  0  0  0  0
    5.1350   -1.4400    0.0000 H   0  0  0  0  0  0  0  0  0  0  0  0
    2.3291   -1.4400    0.0000 H   0  0  0  0  0  0  0  0  0  0  0  0
    3.7320   -3.8700    0.0000 H   0  0  0  0  0  0  0  0  0  0  0  0
    5.1541   -3.7869    0.0000 H   0  0  0  0  0  0  0  0  0  0  0  0
    6.0010   -3.5600    0.0000 H   0  0  0  0  0  0  0  0  0  0  0  0
    5.7741   -2.7131    0.0000 H   0  0  0  0  0  0  0  0  0  0  0  0
    1.6900   -2.7131    0.0000 H   0  0  0  0  0  0  0  0  0  0  0  0
    1.4631   -3.5600    0.0000 H   0  0  0  0  0  0  0  0  0  0  0  0
    2.3100   -3.7869    0.0000 H   0  0  0  0  0  0  0  0  0  0  0  0
    4.9272    3.0600    0.0000 H   0  0  0  0  0  0  0  0  0  0  0  0
    6.3301    0.6300    0.0000 H   0  0  0  0  0  0  0  0  0  0  0  0
    6.3301    3.8700    0.0000 H   0  0  0  0  0  0  0  0  0  0  0  0
    7.7331    1.4400    0.0000 H   0  0  0  0  0  0  0  0  0  0  0  0
    7.7331    3.0600    0.0000 H   0  0  0  0  0  0  0  0  0  0  0  0
  1  3  1  0  0  0  0
  1  4  1  0  0  0  0
  1 22  1  0  0  0  0
  2  3  1  0  0  0  0
  2  5  2  0  0  0  0
  2  6  1  0  0  0  0
  3 18  1  0  0  0  0
  3 19  1  0  0  0  0
  4 10  1  0  0  0  0
  4 20  1  0  0  0  0
  4 21  1  0  0  0  0
  5  7  1  0  0  0  0
  5 23  1  0  0  0  0
  6  8  2  0  0  0  0
  6 24  1  0  0  0  0
  7  9  2  0  0  0  0
  7 11  1  0  0  0  0
  8  9  1  0  0  0  0
  8 12  1  0  0  0  0
  9 25  1  0  0  0  0
 10 13  2  0  0  0  0
 10 14  1  0  0  0  0
 11 26  1  0  0  0  0
 11 27  1  0  0  0  0
 11 28  1  0  0  0  0
 12 29  1  0  0  0  0
 12 30  1  0  0  0  0
 12 31  1  0  0  0  0
 13 15  1  0  0  0  0
 13 32  1  0  0  0  0
 14 16  2  0  0  0  0
 14 33  1  0  0  0  0
 15 17  2  0  0  0  0
 15 34  1  0  0  0  0
 16 17  1  0  0  0  0
 16 35  1  0  0  0  0
 17 36  1  0  0  0  0
M  END
> <PUBCHEM_COMPOUND_CID>
54940178

> <PUBCHEM_COMPOUND_CANONICALIZED>
1

> <PUBCHEM_CACTVS_COMPLEXITY>
198

> <PUBCHEM_CACTVS_HBOND_ACCEPTOR>
1

> <PUBCHEM_CACTVS_HBOND_DONOR>
1

> <PUBCHEM_CACTVS_ROTATABLE_BOND>
4

> <PUBCHEM_CACTVS_SUBSKEYS>
AAADceB6AAAAAAAAAAAAAAAAAAAAAAAAAAAwYAAAAAAAAAABQAAAHAAQAAAADADBGAQyAILAAACAAiBCAACCAAAgAAAIiIAIBIgIICKAkRGEIAhggACIiAcQgEAOAAACAAAAAAAAAAQAAAAAAAAAAAAAAA==

> <PUBCHEM_IUPAC_OPENEYE_NAME>
N-[(3,5-dimethylphenyl)methyl]-1-phenyl-methanamine

> <PUBCHEM_IUPAC_CAS_NAME>
N-[(3,5-dimethylphenyl)methyl]-1-phenylmethanamine

> <PUBCHEM_IUPAC_NAME>
N-[(3,5-dimethylphenyl)methyl]-1-phenylmethanamine

> <PUBCHEM_IUPAC_SYSTEMATIC_NAME>
N-[(3,5-dimethylphenyl)methyl]-1-phenyl-methanamine

> <PUBCHEM_IUPAC_TRADITIONAL_NAME>
benzyl-(3,5-dimethylbenzyl)amine

> <PUBCHEM_IUPAC_INCHI>
InChI=1S/C16H19N/c1-13-8-14(2)10-16(9-13)12-17-11-15-6-4-3-5-7-15/h3-10,17H,11-12H2,1-2H3

> <PUBCHEM_IUPAC_INCHIKEY>
RENFBPKXQQFXIW-UHFFFAOYSA-N

> <PUBCHEM_XLOGP3>
3.4

> <PUBCHEM_EXACT_MASS>
225.15175

> <PUBCHEM_MOLECULAR_FORMULA>
C16H19N

> <PUBCHEM_MOLECULAR_WEIGHT>
225.32876

> <PUBCHEM_OPENEYE_CAN_SMILES>
CC1=CC(=CC(=C1)CNCC2=CC=CC=C2)C

> <PUBCHEM_OPENEYE_ISO_SMILES>
CC1=CC(=CC(=C1)CNCC2=CC=CC=C2)C

> <PUBCHEM_CACTVS_TPSA>
12

> <PUBCHEM_MONOISOTOPIC_WEIGHT>
225.15175

> <PUBCHEM_TOTAL_CHARGE>
0

> <PUBCHEM_HEAVY_ATOM_COUNT>
17

> <PUBCHEM_ATOM_DEF_STEREO_COUNT>
0

> <PUBCHEM_ATOM_UDEF_STEREO_COUNT>
0

> <PUBCHEM_BOND_DEF_STEREO_COUNT>
0

> <PUBCHEM_BOND_UDEF_STEREO_COUNT>
0

> <PUBCHEM_ISOTOPIC_ATOM_COUNT>
0

> <PUBCHEM_COMPONENT_COUNT>
1

> <PUBCHEM_CACTVS_TAUTO_COUNT>
1

> <PUBCHEM_COORDINATE_TYPE>
1
5
255

> <PUBCHEM_BONDANNOTATIONS>
10  13  8
10  14  8
13  15  8
14  16  8
15  17  8
16  17  8
2  5  8
2  6  8
5  7  8
6  8  8
7  9  8
8  9  8

$$$$
54945826
  -OEChem-11301218072D

 39 41  0     0  0  0  0  0  0999 V2000
    6.7619    1.5350    0.0000 O   0  0  0  0  0  0  0  0  0  0  0  0
    6.7619   -0.1970    0.0000 N   0  0  0  0  0  0  0  0  0  0  0  0
    4.6783    1.4737    0.0000 N   0  0  0  0  0  0  0  0  0  0  0  0
    8.2619   -1.0630    0.0000 C   0  0  0  0  0  0  0  0  0  0  0  0
    8.2619   -2.0630    0.0000 C   0  0  0  0  0  0  0  0  0  0  0  0
    9.1279   -1.5630    0.0000 C   0  0  0  0  0  0  0  0  0  0  0  0
    7.7619   -0.1970    0.0000 C   0  0  0  0  0  0  0  0  0  0  0  0
    6.2619   -1.0630    0.0000 C   0  0  0  0  0  0  0  0  0  0  0  0
    6.2619    0.6690    0.0000 C   0  0  0  0  0  0  0  0  0  0  0  0
    6.7619   -1.9291    0.0000 C   0  0  0  0  0  0  0  0  0  0  0  0
    5.2619   -1.0630    0.0000 C   0  0  0  0  0  0  0  0  0  0  0  0
    5.2619    0.6690    0.0000 C   0  0  0  0  0  0  0  0  0  0  0  0
    4.6783   -0.1357    0.0000 C   0  0  0  0  0  0  0  0  0  0  0  0
    3.7320    1.1690    0.0000 C   0  0  0  0  0  0  0  0  0  0  0  0
    3.7320    0.1690    0.0000 C   0  0  0  0  0  0  0  0  0  0  0  0
    2.8660    1.6690    0.0000 C   0  0  0  0  0  0  0  0  0  0  0  0
    2.8660   -0.3310    0.0000 C   0  0  0  0  0  0  0  0  0  0  0  0
    2.0000    1.1690    0.0000 C   0  0  0  0  0  0  0  0  0  0  0  0
    2.0000    0.1690    0.0000 C   0  0  0  0  0  0  0  0  0  0  0  0
    8.7003   -0.6246    0.0000 H   0  0  0  0  0  0  0  0  0  0  0  0
    7.6513   -2.1707    0.0000 H   0  0  0  0  0  0  0  0  0  0  0  0
    8.4739   -2.6457    0.0000 H   0  0  0  0  0  0  0  0  0  0  0  0
    9.5264   -2.0380    0.0000 H   0  0  0  0  0  0  0  0  0  0  0  0
    9.5264   -1.0881    0.0000 H   0  0  0  0  0  0  0  0  0  0  0  0
    8.3445    0.0150    0.0000 H   0  0  0  0  0  0  0  0  0  0  0  0
    7.6542    0.4136    0.0000 H   0  0  0  0  0  0  0  0  0  0  0  0
    6.8819   -1.0630    0.0000 H   0  0  0  0  0  0  0  0  0  0  0  0
    6.2249   -2.2391    0.0000 H   0  0  0  0  0  0  0  0  0  0  0  0
    5.2619   -0.4431    0.0000 H   0  0  0  0  0  0  0  0  0  0  0  0
    4.6419   -1.0630    0.0000 H   0  0  0  0  0  0  0  0  0  0  0  0
    5.2619   -1.6830    0.0000 H   0  0  0  0  0  0  0  0  0  0  0  0
    7.0719   -2.4660    0.0000 H   0  0  0  0  0  0  0  0  0  0  0  0
    7.2988   -1.6191    0.0000 H   0  0  0  0  0  0  0  0  0  0  0  0
    4.8709    2.0630    0.0000 H   0  0  0  0  0  0  0  0  0  0  0  0
    4.8709   -0.7251    0.0000 H   0  0  0  0  0  0  0  0  0  0  0  0
    2.8660    2.2890    0.0000 H   0  0  0  0  0  0  0  0  0  0  0  0
    2.8660   -0.9510    0.0000 H   0  0  0  0  0  0  0  0  0  0  0  0
    1.4631    1.4790    0.0000 H   0  0  0  0  0  0  0  0  0  0  0  0
    1.4631   -0.1410    0.0000 H   0  0  0  0  0  0  0  0  0  0  0  0
  1  9  2  0  0  0  0
  2  7  1  0  0  0  0
  2  8  1  0  0  0  0
  2  9  1  0  0  0  0
  3 12  1  0  0  0  0
  3 14  1  0  0  0  0
  3 34  1  0  0  0  0
  4  5  1  0  0  0  0
  4  6  1  0  0  0  0
  4  7  1  0  0  0  0
  4 20  1  0  0  0  0
  5  6  1  0  0  0  0
  5 21  1  0  0  0  0
  5 22  1  0  0  0  0
  6 23  1  0  0  0  0
  6 24  1  0  0  0  0
  7 25  1  0  0  0  0
  7 26  1  0  0  0  0
  8 10  1  0  0  0  0
  8 11  1  0  0  0  0
  8 27  1  0  0  0  0
  9 12  1  0  0  0  0
 10 28  1  0  0  0  0
 10 32  1  0  0  0  0
 10 33  1  0  0  0  0
 11 29  1  0  0  0  0
 11 30  1  0  0  0  0
 11 31  1  0  0  0  0
 12 13  2  0  0  0  0
 13 15  1  0  0  0  0
 13 35  1  0  0  0  0
 14 15  1  0  0  0  0
 14 16  2  0  0  0  0
 15 17  2  0  0  0  0
 16 18  1  0  0  0  0
 16 36  1  0  0  0  0
 17 19  1  0  0  0  0
 17 37  1  0  0  0  0
 18 19  2  0  0  0  0
 18 38  1  0  0  0  0
 19 39  1  0  0  0  0
M  END
> <PUBCHEM_COMPOUND_CID>
54945826

> <PUBCHEM_COMPOUND_CANONICALIZED>
1

> <PUBCHEM_CACTVS_COMPLEXITY>
338

> <PUBCHEM_CACTVS_HBOND_ACCEPTOR>
1

> <PUBCHEM_CACTVS_HBOND_DONOR>
1

> <PUBCHEM_CACTVS_ROTATABLE_BOND>
4

> <PUBCHEM_CACTVS_SUBSKEYS>
AAADceB7IAAAAAAAAAAAAAAAGAAAAWAAAAAwAAAAAAAAAFgB8AAAHgAQAAAADSjBngQywPPJkACoAyVyVACCgCAnAiAImSG4ZNgIYPLAlbGUIQhglgDIyYcYiYCeAAAAAAACAAAAAAAAAAQAAAAAAAAAAA==

> <PUBCHEM_IUPAC_OPENEYE_NAME>
N-(cyclopropylmethyl)-N-isopropyl-1H-indole-2-carboxamide

> <PUBCHEM_IUPAC_CAS_NAME>
N-(cyclopropylmethyl)-N-propan-2-yl-1H-indole-2-carboxamide

> <PUBCHEM_IUPAC_NAME>
N-(cyclopropylmethyl)-N-propan-2-yl-1H-indole-2-carboxamide

> <PUBCHEM_IUPAC_SYSTEMATIC_NAME>
N-(cyclopropylmethyl)-N-propan-2-yl-1H-indole-2-carboxamide

> <PUBCHEM_IUPAC_TRADITIONAL_NAME>
N-(cyclopropylmethyl)-N-isopropyl-1H-indole-2-carboxamide

> <PUBCHEM_IUPAC_INCHI>
InChI=1S/C16H20N2O/c1-11(2)18(10-12-7-8-12)16(19)15-9-13-5-3-4-6-14(13)17-15/h3-6,9,11-12,17H,7-8,10H2,1-2H3

> <PUBCHEM_IUPAC_INCHIKEY>
KDDGYTVRWJAWSG-UHFFFAOYSA-N

> <PUBCHEM_XLOGP3>
3.8

> <PUBCHEM_EXACT_MASS>
256.157563

> <PUBCHEM_MOLECULAR_FORMULA>
C16H20N2O

> <PUBCHEM_MOLECULAR_WEIGHT>
256.3428

> <PUBCHEM_OPENEYE_CAN_SMILES>
CC(C)N(CC1CC1)C(=O)C2=CC3=CC=CC=C3N2

> <PUBCHEM_OPENEYE_ISO_SMILES>
CC(C)N(CC1CC1)C(=O)C2=CC3=CC=CC=C3N2

> <PUBCHEM_CACTVS_TPSA>
36.1

> <PUBCHEM_MONOISOTOPIC_WEIGHT>
256.157563

> <PUBCHEM_TOTAL_CHARGE>
0

> <PUBCHEM_HEAVY_ATOM_COUNT>
19

> <PUBCHEM_ATOM_DEF_STEREO_COUNT>
0

> <PUBCHEM_ATOM_UDEF_STEREO_COUNT>
0

> <PUBCHEM_BOND_DEF_STEREO_COUNT>
0

> <PUBCHEM_BOND_UDEF_STEREO_COUNT>
0

> <PUBCHEM_ISOTOPIC_ATOM_COUNT>
0

> <PUBCHEM_COMPONENT_COUNT>
1

> <PUBCHEM_CACTVS_TAUTO_COUNT>
6

> <PUBCHEM_COORDINATE_TYPE>
1
5
255

> <PUBCHEM_BONDANNOTATIONS>
12  13  8
13  15  8
14  15  8
14  16  8
15  17  8
16  18  8
17  19  8
18  19  8
3  12  8
3  14  8

$$$$
