43860672
  -OEChem-05181308052D

 47 49  0     1  0  0  0  0  0999 V2000
    2.6723   -3.4653    0.0000 S   0  0  0  0  0  0  0  0  0  0  0  0
    3.7601    2.8825    0.0000 S   0  0  0  0  0  0  0  0  0  0  0  0
    4.7306    5.3770    0.0000 S   0  0  0  0  0  0  0  0  0  0  0  0
    2.0000   -1.3962    0.0000 O   0  0  0  0  0  0  0  0  0  0  0  0
    5.5202   -1.3962    0.0000 O   0  0  0  0  0  0  0  0  0  0  0  0
    4.7601    2.8825    0.0000 O   0  0  0  0  0  0  0  0  0  0  0  0
    2.7601    2.8825    0.0000 O   0  0  0  0  0  0  0  0  0  0  0  0
    3.7601   -1.1175    0.0000 N   0  0  0  0  0  0  0  0  0  0  0  0
    3.7601    3.8825    0.0000 N   0  0  0  0  0  0  0  0  0  0  0  0
    2.8980   -6.1014    0.0000 N   0  0  0  0  0  0  0  0  0  0  0  0
    5.5396    3.9758    0.0000 N   0  0  0  0  0  0  0  0  0  0  0  0
    6.2088    4.7189    0.0000 N   0  0  0  0  0  0  0  0  0  0  0  0
    3.2601   -2.6563    0.0000 C   0  0  3  0  0  0  0  0  0  0  0  0
    4.2601   -2.6563    0.0000 C   0  0  0  0  0  0  0  0  0  0  0  0
    2.9511   -1.7053    0.0000 C   0  0  0  0  0  0  0  0  0  0  0  0
    4.5691   -1.7053    0.0000 C   0  0  0  0  0  0  0  0  0  0  0  0
    3.7601   -0.1175    0.0000 C   0  0  0  0  0  0  0  0  0  0  0  0
    4.6261    0.3825    0.0000 C   0  0  0  0  0  0  0  0  0  0  0  0
    2.8940    0.3825    0.0000 C   0  0  0  0  0  0  0  0  0  0  0  0
    3.0790   -4.3789    0.0000 C   0  0  0  0  0  0  0  0  0  0  0  0
    3.7601    1.8825    0.0000 C   0  0  0  0  0  0  0  0  0  0  0  0
    4.6261    1.3825    0.0000 C   0  0  0  0  0  0  0  0  0  0  0  0
    2.8940    1.3825    0.0000 C   0  0  0  0  0  0  0  0  0  0  0  0
    2.4912   -5.1879    0.0000 C   0  0  0  0  0  0  0  0  0  0  0  0
    4.6261    4.3825    0.0000 C   0  0  0  0  0  0  0  0  0  0  0  0
    5.7088    5.5850    0.0000 C   0  0  0  0  0  0  0  0  0  0  0  0
    6.1155    6.4985    0.0000 C   0  0  0  0  0  0  0  0  0  0  0  0
    7.1100    6.6030    0.0000 C   0  0  0  0  0  0  0  0  0  0  0  0
    2.6477   -2.5593    0.0000 H   0  0  0  0  0  0  0  0  0  0  0  0
    4.1953   -3.2729    0.0000 H   0  0  0  0  0  0  0  0  0  0  0  0
    4.8665   -2.7852    0.0000 H   0  0  0  0  0  0  0  0  0  0  0  0
    5.1630    0.0725    0.0000 H   0  0  0  0  0  0  0  0  0  0  0  0
    2.3571    0.0725    0.0000 H   0  0  0  0  0  0  0  0  0  0  0  0
    3.5097   -4.8249    0.0000 H   0  0  0  0  0  0  0  0  0  0  0  0
    3.5930   -4.0322    0.0000 H   0  0  0  0  0  0  0  0  0  0  0  0
    5.1630    1.6925    0.0000 H   0  0  0  0  0  0  0  0  0  0  0  0
    2.3571    1.6925    0.0000 H   0  0  0  0  0  0  0  0  0  0  0  0
    2.0606   -4.7419    0.0000 H   0  0  0  0  0  0  0  0  0  0  0  0
    1.9772   -5.5346    0.0000 H   0  0  0  0  0  0  0  0  0  0  0  0
    3.2231    4.1925    0.0000 H   0  0  0  0  0  0  0  0  0  0  0  0
    2.5336   -6.6030    0.0000 H   0  0  0  0  0  0  0  0  0  0  0  0
    3.5146   -6.1662    0.0000 H   0  0  0  0  0  0  0  0  0  0  0  0
    6.1588    7.1170    0.0000 H   0  0  0  0  0  0  0  0  0  0  0  0
    5.5139    6.6485    0.0000 H   0  0  0  0  0  0  0  0  0  0  0  0
    7.1748    5.9864    0.0000 H   0  0  0  0  0  0  0  0  0  0  0  0
    7.7266    6.6678    0.0000 H   0  0  0  0  0  0  0  0  0  0  0  0
    7.0452    7.2196    0.0000 H   0  0  0  0  0  0  0  0  0  0  0  0
  1 13  1  0  0  0  0
  1 20  1  0  0  0  0
  2  6  2  0  0  0  0
  2  7  2  0  0  0  0
  2  9  1  0  0  0  0
  2 21  1  0  0  0  0
  3 25  1  0  0  0  0
  3 26  1  0  0  0  0
  4 15  2  0  0  0  0
  5 16  2  0  0  0  0
  8 15  1  0  0  0  0
  8 16  1  0  0  0  0
  8 17  1  0  0  0  0
  9 25  1  0  0  0  0
  9 40  1  0  0  0  0
 10 24  1  0  0  0  0
 10 41  1  0  0  0  0
 10 42  1  0  0  0  0
 11 12  1  0  0  0  0
 11 25  2  0  0  0  0
 12 26  2  0  0  0  0
 13 14  1  0  0  0  0
 13 15  1  0  0  0  0
 13 29  1  0  0  0  0
 14 16  1  0  0  0  0
 14 30  1  0  0  0  0
 14 31  1  0  0  0  0
 17 18  2  0  0  0  0
 17 19  1  0  0  0  0
 18 22  1  0  0  0  0
 18 32  1  0  0  0  0
 19 23  2  0  0  0  0
 19 33  1  0  0  0  0
 20 24  1  0  0  0  0
 20 34  1  0  0  0  0
 20 35  1  0  0  0  0
 21 22  2  0  0  0  0
 21 23  1  0  0  0  0
 22 36  1  0  0  0  0
 23 37  1  0  0  0  0
 24 38  1  0  0  0  0
 24 39  1  0  0  0  0
 26 27  1  0  0  0  0
 27 28  1  0  0  0  0
 27 43  1  0  0  0  0
 27 44  1  0  0  0  0
 28 45  1  0  0  0  0
 28 46  1  0  0  0  0
 28 47  1  0  0  0  0
M  END
> <PUBCHEM_COMPOUND_CID>
43860672

> <PUBCHEM_COMPOUND_CANONICALIZED>
1

> <PUBCHEM_CACTVS_COMPLEXITY>
678

> <PUBCHEM_CACTVS_HBOND_ACCEPTOR>
10

> <PUBCHEM_CACTVS_HBOND_DONOR>
2

> <PUBCHEM_CACTVS_ROTATABLE_BOND>
8

> <PUBCHEM_CACTVS_SUBSKEYS>
AAADceB7uABgAAAAAAAAAAAAAAAAAWLAAAAwAAAAAAAAAAABwAAAHgQYQAAACAjF0gSz0YNAAAquACVycHDSAJJhAhEciJkwZIgIIDLgkZGEIAhwnCDoyAcVAAAAAAQAAAAAAAAACAAAAAAAAAAAAAAAAA==

> <PUBCHEM_IUPAC_OPENEYE_NAME>
4-[3-(2-aminoethylsulfanyl)-2,5-dioxo-pyrrolidin-1-yl]-N-(5-ethyl-1,3,4-thiadiazol-2-yl)benzenesulfonamide

> <PUBCHEM_IUPAC_CAS_NAME>
4-[3-(2-aminoethylthio)-2,5-dioxo-1-pyrrolidinyl]-N-(5-ethyl-1,3,4-thiadiazol-2-yl)benzenesulfonamide

> <PUBCHEM_IUPAC_NAME>
4-[3-(2-aminoethylsulfanyl)-2,5-dioxopyrrolidin-1-yl]-N-(5-ethyl-1,3,4-thiadiazol-2-yl)benzenesulfonamide

> <PUBCHEM_IUPAC_SYSTEMATIC_NAME>
4-[3-(2-azanylethylsulfanyl)-2,5-bis(oxidanylidene)pyrrolidin-1-yl]-N-(5-ethyl-1,3,4-thiadiazol-2-yl)benzenesulfonamide

> <PUBCHEM_IUPAC_TRADITIONAL_NAME>
4-[3-(2-aminoethylthio)-2,5-diketo-pyrrolidino]-N-(5-ethyl-1,3,4-thiadiazol-2-yl)benzenesulfonamide

> <PUBCHEM_IUPAC_INCHI>
InChI=1S/C16H19N5O4S3/c1-2-13-18-19-16(27-13)20-28(24,25)11-5-3-10(4-6-11)21-14(22)9-12(15(21)23)26-8-7-17/h3-6,12H,2,7-9,17H2,1H3,(H,19,20)

> <PUBCHEM_IUPAC_INCHIKEY>
SXFHJZSMRXAVDD-UHFFFAOYSA-N

> <PUBCHEM_XLOGP3>
0.3

> <PUBCHEM_EXACT_MASS>
441.059917

> <PUBCHEM_MOLECULAR_FORMULA>
C16H19N5O4S3

> <PUBCHEM_MOLECULAR_WEIGHT>
441.54816

> <PUBCHEM_OPENEYE_CAN_SMILES>
CCC1=NN=C(S1)NS(=O)(=O)C2=CC=C(C=C2)N3C(=O)CC(C3=O)SCCN

> <PUBCHEM_OPENEYE_ISO_SMILES>
CCC1=NN=C(S1)NS(=O)(=O)C2=CC=C(C=C2)N3C(=O)CC(C3=O)SCCN

> <PUBCHEM_CACTVS_TPSA>
197

> <PUBCHEM_MONOISOTOPIC_WEIGHT>
441.059917

> <PUBCHEM_TOTAL_CHARGE>
0

> <PUBCHEM_HEAVY_ATOM_COUNT>
28

> <PUBCHEM_ATOM_DEF_STEREO_COUNT>
0

> <PUBCHEM_ATOM_UDEF_STEREO_COUNT>
1

> <PUBCHEM_BOND_DEF_STEREO_COUNT>
0

> <PUBCHEM_BOND_UDEF_STEREO_COUNT>
0

> <PUBCHEM_ISOTOPIC_ATOM_COUNT>
0

> <PUBCHEM_COMPONENT_COUNT>
1

> <PUBCHEM_CACTVS_TAUTO_COUNT>
8

> <PUBCHEM_COORDINATE_TYPE>
1
5
255

> <PUBCHEM_BONDANNOTATIONS>
13  1  3
11  12  8
11  25  8
12  26  8
17  18  8
17  19  8
18  22  8
19  23  8
21  22  8
21  23  8
3  25  8
3  26  8

$$$$
43874148
  -OEChem-05181308052D

 35 36  0     0  0  0  0  0  0999 V2000
    7.1962   -3.3170    0.0000 F   0  0  0  0  0  0  0  0  0  0  0  0
    5.8301   -3.6830    0.0000 F   0  0  0  0  0  0  0  0  0  0  0  0
    6.8301   -1.9510    0.0000 F   0  0  0  0  0  0  0  0  0  0  0  0
    2.0000   -3.3170    0.0000 F   0  0  0  0  0  0  0  0  0  0  0  0
    2.3660   -1.9510    0.0000 F   0  0  0  0  0  0  0  0  0  0  0  0
    3.3660   -3.6830    0.0000 F   0  0  0  0  0  0  0  0  0  0  0  0
    7.6962    2.5490    0.0000 F   0  0  0  0  0  0  0  0  0  0  0  0
    8.0622    1.1830    0.0000 F   0  0  0  0  0  0  0  0  0  0  0  0
    6.6962    0.8170    0.0000 F   0  0  0  0  0  0  0  0  0  0  0  0
    6.3301    0.1830    0.0000 O   0  0  0  0  0  0  0  0  0  0  0  0
    4.5981    0.1830    0.0000 N   0  0  0  0  0  0  0  0  0  0  0  0
    4.5981   -0.8170    0.0000 C   0  0  0  0  0  0  0  0  0  0  0  0
    5.4641   -2.3170    0.0000 C   0  0  0  0  0  0  0  0  0  0  0  0
    3.7320   -2.3170    0.0000 C   0  0  0  0  0  0  0  0  0  0  0  0
    3.7320   -1.3170    0.0000 C   0  0  0  0  0  0  0  0  0  0  0  0
    5.4641   -1.3170    0.0000 C   0  0  0  0  0  0  0  0  0  0  0  0
    4.5981   -2.8170    0.0000 C   0  0  0  0  0  0  0  0  0  0  0  0
    5.4641    1.6830    0.0000 C   0  0  0  0  0  0  0  0  0  0  0  0
    6.3301    2.1830    0.0000 C   0  0  0  0  0  0  0  0  0  0  0  0
    5.4641    0.6830    0.0000 C   0  0  0  0  0  0  0  0  0  0  0  0
    6.3301   -2.8170    0.0000 C   0  0  0  0  0  0  0  0  0  0  0  0
    2.8660   -2.8170    0.0000 C   0  0  0  0  0  0  0  0  0  0  0  0
    4.5981    2.1830    0.0000 C   0  0  0  0  0  0  0  0  0  0  0  0
    6.3301    3.1830    0.0000 C   0  0  0  0  0  0  0  0  0  0  0  0
    7.1962    1.6830    0.0000 C   0  0  0  0  0  0  0  0  0  0  0  0
    4.5981    3.1830    0.0000 C   0  0  0  0  0  0  0  0  0  0  0  0
    5.4641    3.6830    0.0000 C   0  0  0  0  0  0  0  0  0  0  0  0
    3.1951   -1.0070    0.0000 H   0  0  0  0  0  0  0  0  0  0  0  0
    6.0010   -1.0070    0.0000 H   0  0  0  0  0  0  0  0  0  0  0  0
    4.5981   -3.4370    0.0000 H   0  0  0  0  0  0  0  0  0  0  0  0
    4.0611    0.4930    0.0000 H   0  0  0  0  0  0  0  0  0  0  0  0
    4.0611    1.8730    0.0000 H   0  0  0  0  0  0  0  0  0  0  0  0
    6.8671    3.4930    0.0000 H   0  0  0  0  0  0  0  0  0  0  0  0
    4.0611    3.4930    0.0000 H   0  0  0  0  0  0  0  0  0  0  0  0
    5.4641    4.3030    0.0000 H   0  0  0  0  0  0  0  0  0  0  0  0
  1 21  1  0  0  0  0
  2 21  1  0  0  0  0
  3 21  1  0  0  0  0
  4 22  1  0  0  0  0
  5 22  1  0  0  0  0
  6 22  1  0  0  0  0
  7 25  1  0  0  0  0
  8 25  1  0  0  0  0
  9 25  1  0  0  0  0
 10 20  2  0  0  0  0
 11 12  1  0  0  0  0
 11 20  1  0  0  0  0
 11 31  1  0  0  0  0
 12 15  2  0  0  0  0
 12 16  1  0  0  0  0
 13 16  2  0  0  0  0
 13 17  1  0  0  0  0
 13 21  1  0  0  0  0
 14 15  1  0  0  0  0
 14 17  2  0  0  0  0
 14 22  1  0  0  0  0
 15 28  1  0  0  0  0
 16 29  1  0  0  0  0
 17 30  1  0  0  0  0
 18 19  1  0  0  0  0
 18 20  1  0  0  0  0
 18 23  2  0  0  0  0
 19 24  2  0  0  0  0
 19 25  1  0  0  0  0
 23 26  1  0  0  0  0
 23 32  1  0  0  0  0
 24 27  1  0  0  0  0
 24 33  1  0  0  0  0
 26 27  2  0  0  0  0
 26 34  1  0  0  0  0
 27 35  1  0  0  0  0
M  END
> <PUBCHEM_COMPOUND_CID>
43874148

> <PUBCHEM_COMPOUND_CANONICALIZED>
1

> <PUBCHEM_CACTVS_COMPLEXITY>
504

> <PUBCHEM_CACTVS_HBOND_ACCEPTOR>
10

> <PUBCHEM_CACTVS_HBOND_DONOR>
1

> <PUBCHEM_CACTVS_ROTATABLE_BOND>
2

> <PUBCHEM_CACTVS_SUBSKEYS>
AAADccB6IcAAAAAAAAAAAAAAAAAAAAAAAAAwYAAAAAAAAAABQAAAHwAQAAAADAiBmBAwwILAAACIAiVSUACCAAAlAgAIiAEAZMgIIDLAlZGEIQhglADIyYcYiMCOgAACQAAQAAAAAASAACAAAAAAAAAAAA==

> <PUBCHEM_IUPAC_OPENEYE_NAME>
N-[3,5-bis(trifluoromethyl)phenyl]-2-(trifluoromethyl)benzamide

> <PUBCHEM_IUPAC_CAS_NAME>
N-[3,5-bis(trifluoromethyl)phenyl]-2-(trifluoromethyl)benzamide

> <PUBCHEM_IUPAC_NAME>
N-[3,5-bis(trifluoromethyl)phenyl]-2-(trifluoromethyl)benzamide

> <PUBCHEM_IUPAC_SYSTEMATIC_NAME>
N-[3,5-bis(trifluoromethyl)phenyl]-2-(trifluoromethyl)benzamide

> <PUBCHEM_IUPAC_TRADITIONAL_NAME>
N-[3,5-bis(trifluoromethyl)phenyl]-2-(trifluoromethyl)benzamide

> <PUBCHEM_IUPAC_INCHI>
InChI=1S/C16H8F9NO/c17-14(18,19)8-5-9(15(20,21)22)7-10(6-8)26-13(27)11-3-1-2-4-12(11)16(23,24)25/h1-7H,(H,26,27)

> <PUBCHEM_IUPAC_INCHIKEY>
AQGCMDSHXOAESU-UHFFFAOYSA-N

> <PUBCHEM_XLOGP3>
4.7

> <PUBCHEM_EXACT_MASS>
401.046218

> <PUBCHEM_MOLECULAR_FORMULA>
C16H8F9NO

> <PUBCHEM_MOLECULAR_WEIGHT>
401.226449

> <PUBCHEM_OPENEYE_CAN_SMILES>
C1=CC=C(C(=C1)C(=O)NC2=CC(=CC(=C2)C(F)(F)F)C(F)(F)F)C(F)(F)F

> <PUBCHEM_OPENEYE_ISO_SMILES>
C1=CC=C(C(=C1)C(=O)NC2=CC(=CC(=C2)C(F)(F)F)C(F)(F)F)C(F)(F)F

> <PUBCHEM_CACTVS_TPSA>
29.1

> <PUBCHEM_MONOISOTOPIC_WEIGHT>
401.046218

> <PUBCHEM_TOTAL_CHARGE>
0

> <PUBCHEM_HEAVY_ATOM_COUNT>
27

> <PUBCHEM_ATOM_DEF_STEREO_COUNT>
0

> <PUBCHEM_ATOM_UDEF_STEREO_COUNT>
0

> <PUBCHEM_BOND_DEF_STEREO_COUNT>
0

> <PUBCHEM_BOND_UDEF_STEREO_COUNT>
0

> <PUBCHEM_ISOTOPIC_ATOM_COUNT>
0

> <PUBCHEM_COMPONENT_COUNT>
1

> <PUBCHEM_CACTVS_TAUTO_COUNT>
2

> <PUBCHEM_COORDINATE_TYPE>
1
5
255

> <PUBCHEM_BONDANNOTATIONS>
12  15  8
12  16  8
13  16  8
13  17  8
14  15  8
14  17  8
18  19  8
18  23  8
19  24  8
23  26  8
24  27  8
26  27  8

$$$$
