65333142
  -OEChem-11301218262D

 30 31  0     1  0  0  0  0  0999 V2000
    4.6783    0.9737    0.0000 N   0  0  0  0  0  0  0  0  0  0  0  0
    6.7619   -0.6970    0.0000 N   0  0  0  0  0  0  0  0  0  0  0  0
    6.2619    0.1690    0.0000 C   0  0  3  0  0  0  0  0  0  0  0  0
    5.2619    0.1690    0.0000 C   0  0  0  0  0  0  0  0  0  0  0  0
    3.7320    0.6690    0.0000 C   0  0  0  0  0  0  0  0  0  0  0  0
    3.7320   -0.3310    0.0000 C   0  0  0  0  0  0  0  0  0  0  0  0
    4.6783   -0.6357    0.0000 C   0  0  0  0  0  0  0  0  0  0  0  0
    6.7619    1.0350    0.0000 C   0  0  0  0  0  0  0  0  0  0  0  0
    7.7619   -0.6970    0.0000 C   0  0  0  0  0  0  0  0  0  0  0  0
    2.8660    1.1690    0.0000 C   0  0  0  0  0  0  0  0  0  0  0  0
    2.8660   -0.8310    0.0000 C   0  0  0  0  0  0  0  0  0  0  0  0
    2.0000    0.6690    0.0000 C   0  0  0  0  0  0  0  0  0  0  0  0
    2.0000   -0.3310    0.0000 C   0  0  0  0  0  0  0  0  0  0  0  0
    8.2619   -1.5630    0.0000 C   0  0  0  0  0  0  0  0  0  0  0  0
    5.9519   -0.3679    0.0000 H   0  0  0  0  0  0  0  0  0  0  0  0
    4.8709    1.5630    0.0000 H   0  0  0  0  0  0  0  0  0  0  0  0
    4.8709   -1.2251    0.0000 H   0  0  0  0  0  0  0  0  0  0  0  0
    6.4519   -1.2340    0.0000 H   0  0  0  0  0  0  0  0  0  0  0  0
    7.2988    0.7250    0.0000 H   0  0  0  0  0  0  0  0  0  0  0  0
    7.0719    1.5720    0.0000 H   0  0  0  0  0  0  0  0  0  0  0  0
    6.2249    1.3450    0.0000 H   0  0  0  0  0  0  0  0  0  0  0  0
    8.3445   -0.4850    0.0000 H   0  0  0  0  0  0  0  0  0  0  0  0
    7.6542   -0.0864    0.0000 H   0  0  0  0  0  0  0  0  0  0  0  0
    2.8660    1.7890    0.0000 H   0  0  0  0  0  0  0  0  0  0  0  0
    2.8660   -1.4510    0.0000 H   0  0  0  0  0  0  0  0  0  0  0  0
    1.4631    0.9790    0.0000 H   0  0  0  0  0  0  0  0  0  0  0  0
    1.4631   -0.6410    0.0000 H   0  0  0  0  0  0  0  0  0  0  0  0
    7.7249   -1.8730    0.0000 H   0  0  0  0  0  0  0  0  0  0  0  0
    8.5719   -2.1000    0.0000 H   0  0  0  0  0  0  0  0  0  0  0  0
    8.7988   -1.2530    0.0000 H   0  0  0  0  0  0  0  0  0  0  0  0
  1  4  1  0  0  0  0
  1  5  1  0  0  0  0
  1 16  1  0  0  0  0
  2  3  1  0  0  0  0
  2  9  1  0  0  0  0
  2 18  1  0  0  0  0
  3  4  1  0  0  0  0
  3  8  1  0  0  0  0
  3 15  1  0  0  0  0
  4  7  2  0  0  0  0
  5  6  1  0  0  0  0
  5 10  2  0  0  0  0
  6  7  1  0  0  0  0
  6 11  2  0  0  0  0
  7 17  1  0  0  0  0
  8 19  1  0  0  0  0
  8 20  1  0  0  0  0
  8 21  1  0  0  0  0
  9 14  1  0  0  0  0
  9 22  1  0  0  0  0
  9 23  1  0  0  0  0
 10 12  1  0  0  0  0
 10 24  1  0  0  0  0
 11 13  1  0  0  0  0
 11 25  1  0  0  0  0
 12 13  2  0  0  0  0
 12 26  1  0  0  0  0
 13 27  1  0  0  0  0
 14 28  1  0  0  0  0
 14 29  1  0  0  0  0
 14 30  1  0  0  0  0
M  END
> <PUBCHEM_COMPOUND_CID>
65333142

> <PUBCHEM_COMPOUND_CANONICALIZED>
1

> <PUBCHEM_CACTVS_COMPLEXITY>
181

> <PUBCHEM_CACTVS_HBOND_ACCEPTOR>
1

> <PUBCHEM_CACTVS_HBOND_DONOR>
2

> <PUBCHEM_CACTVS_ROTATABLE_BOND>
3

> <PUBCHEM_CACTVS_SUBSKEYS>
AAADceBzAAAAAAAAAAAAAAAAAAAAAWAAAAAwAAAAAAAAAFgB8AAAHAAQAAAADCjBHgQywPLJkACgAyRiRACCgCAhAiAImaA4ZJgIYOLAkZGUIAhgkADIyAcQgIAOAAAAAAACAAAAAAAAAAQAAAAAAAAAAA==

> <PUBCHEM_IUPAC_OPENEYE_NAME>
N-ethyl-1-(1H-indol-2-yl)ethanamine

> <PUBCHEM_IUPAC_CAS_NAME>
N-ethyl-1-(1H-indol-2-yl)ethanamine

> <PUBCHEM_IUPAC_NAME>
N-ethyl-1-(1H-indol-2-yl)ethanamine

> <PUBCHEM_IUPAC_SYSTEMATIC_NAME>
N-ethyl-1-(1H-indol-2-yl)ethanamine

> <PUBCHEM_IUPAC_TRADITIONAL_NAME>
ethyl-[1-(1H-indol-2-yl)ethyl]amine

> <PUBCHEM_IUPAC_INCHI>
InChI=1S/C12H16N2/c1-3-13-9(2)12-8-10-6-4-5-7-11(10)14-12/h4-9,13-14H,3H2,1-2H3

> <PUBCHEM_IUPAC_INCHIKEY>
WJVSOBODXWDQJW-UHFFFAOYSA-N

> <PUBCHEM_XLOGP3>
2.3

> <PUBCHEM_EXACT_MASS>
188.131349

> <PUBCHEM_MOLECULAR_FORMULA>
C12H16N2

> <PUBCHEM_MOLECULAR_WEIGHT>
188.26884

> <PUBCHEM_OPENEYE_CAN_SMILES>
CCNC(C)C1=CC2=CC=CC=C2N1

> <PUBCHEM_OPENEYE_ISO_SMILES>
CCNC(C)C1=CC2=CC=CC=C2N1

> <PUBCHEM_CACTVS_TPSA>
27.8

> <PUBCHEM_MONOISOTOPIC_WEIGHT>
188.131349

> <PUBCHEM_TOTAL_CHARGE>
0

> <PUBCHEM_HEAVY_ATOM_COUNT>
14

> <PUBCHEM_ATOM_DEF_STEREO_COUNT>
0

> <PUBCHEM_ATOM_UDEF_STEREO_COUNT>
1

> <PUBCHEM_BOND_DEF_STEREO_COUNT>
0

> <PUBCHEM_BOND_UDEF_STEREO_COUNT>
0

> <PUBCHEM_ISOTOPIC_ATOM_COUNT>
0

> <PUBCHEM_COMPONENT_COUNT>
1

> <PUBCHEM_CACTVS_TAUTO_COUNT>
1

> <PUBCHEM_COORDINATE_TYPE>
1
5
255

> <PUBCHEM_BONDANNOTATIONS>
1  4  8
1  5  8
10  12  8
11  13  8
12  13  8
3  8  3
4  7  8
5  10  8
5  6  8
6  11  8
6  7  8

$$$$
65333196
  -OEChem-11301218262D

 33 34  0     1  0  0  0  0  0999 V2000
    6.7619   -0.6970    0.0000 N   0  0  0  0  0  0  0  0  0  0  0  0
    4.6783    0.9737    0.0000 N   0  0  0  0  0  0  0  0  0  0  0  0
    6.2619    0.1690    0.0000 C   0  0  3  0  0  0  0  0  0  0  0  0
    5.2619    0.1690    0.0000 C   0  0  0  0  0  0  0  0  0  0  0  0
    4.6783   -0.6357    0.0000 C   0  0  0  0  0  0  0  0  0  0  0  0
    3.7320    0.6690    0.0000 C   0  0  0  0  0  0  0  0  0  0  0  0
    3.7320   -0.3310    0.0000 C   0  0  0  0  0  0  0  0  0  0  0  0
    7.7619   -0.6970    0.0000 C   0  0  0  0  0  0  0  0  0  0  0  0
    6.7619    1.0350    0.0000 C   0  0  0  0  0  0  0  0  0  0  0  0
    8.2619   -1.5630    0.0000 C   0  0  0  0  0  0  0  0  0  0  0  0
    2.8660    1.1690    0.0000 C   0  0  0  0  0  0  0  0  0  0  0  0
    2.8660   -0.8310    0.0000 C   0  0  0  0  0  0  0  0  0  0  0  0
    9.2619   -1.5630    0.0000 C   0  0  0  0  0  0  0  0  0  0  0  0
    2.0000    0.6690    0.0000 C   0  0  0  0  0  0  0  0  0  0  0  0
    2.0000   -0.3310    0.0000 C   0  0  0  0  0  0  0  0  0  0  0  0
    5.9519   -0.3679    0.0000 H   0  0  0  0  0  0  0  0  0  0  0  0
    6.4519   -1.2340    0.0000 H   0  0  0  0  0  0  0  0  0  0  0  0
    4.8709    1.5630    0.0000 H   0  0  0  0  0  0  0  0  0  0  0  0
    4.8709   -1.2251    0.0000 H   0  0  0  0  0  0  0  0  0  0  0  0
    8.3445   -0.4850    0.0000 H   0  0  0  0  0  0  0  0  0  0  0  0
    7.6542   -0.0864    0.0000 H   0  0  0  0  0  0  0  0  0  0  0  0
    7.2988    0.7250    0.0000 H   0  0  0  0  0  0  0  0  0  0  0  0
    7.0719    1.5720    0.0000 H   0  0  0  0  0  0  0  0  0  0  0  0
    6.2249    1.3450    0.0000 H   0  0  0  0  0  0  0  0  0  0  0  0
    7.6793   -1.7751    0.0000 H   0  0  0  0  0  0  0  0  0  0  0  0
    8.3695   -2.1736    0.0000 H   0  0  0  0  0  0  0  0  0  0  0  0
    2.8660    1.7890    0.0000 H   0  0  0  0  0  0  0  0  0  0  0  0
    2.8660   -1.4510    0.0000 H   0  0  0  0  0  0  0  0  0  0  0  0
    9.2619   -2.1830    0.0000 H   0  0  0  0  0  0  0  0  0  0  0  0
    9.8819   -1.5630    0.0000 H   0  0  0  0  0  0  0  0  0  0  0  0
    9.2619   -0.9431    0.0000 H   0  0  0  0  0  0  0  0  0  0  0  0
    1.4631    0.9790    0.0000 H   0  0  0  0  0  0  0  0  0  0  0  0
    1.4631   -0.6410    0.0000 H   0  0  0  0  0  0  0  0  0  0  0  0
  1  3  1  0  0  0  0
  1  8  1  0  0  0  0
  1 17  1  0  0  0  0
  2  4  1  0  0  0  0
  2  6  1  0  0  0  0
  2 18  1  0  0  0  0
  3  4  1  0  0  0  0
  3  9  1  0  0  0  0
  3 16  1  0  0  0  0
  4  5  2  0  0  0  0
  5  7  1  0  0  0  0
  5 19  1  0  0  0  0
  6  7  1  0  0  0  0
  6 11  2  0  0  0  0
  7 12  2  0  0  0  0
  8 10  1  0  0  0  0
  8 20  1  0  0  0  0
  8 21  1  0  0  0  0
  9 22  1  0  0  0  0
  9 23  1  0  0  0  0
  9 24  1  0  0  0  0
 10 13  1  0  0  0  0
 10 25  1  0  0  0  0
 10 26  1  0  0  0  0
 11 14  1  0  0  0  0
 11 27  1  0  0  0  0
 12 15  1  0  0  0  0
 12 28  1  0  0  0  0
 13 29  1  0  0  0  0
 13 30  1  0  0  0  0
 13 31  1  0  0  0  0
 14 15  2  0  0  0  0
 14 32  1  0  0  0  0
 15 33  1  0  0  0  0
M  END
> <PUBCHEM_COMPOUND_CID>
65333196

> <PUBCHEM_COMPOUND_CANONICALIZED>
1

> <PUBCHEM_CACTVS_COMPLEXITY>
193

> <PUBCHEM_CACTVS_HBOND_ACCEPTOR>
1

> <PUBCHEM_CACTVS_HBOND_DONOR>
2

> <PUBCHEM_CACTVS_ROTATABLE_BOND>
4

> <PUBCHEM_CACTVS_SUBSKEYS>
AAADceBzAAAAAAAAAAAAAAAAAAAAAWAAAAAwAAAAAAAAAFgB8AAAHAAQAAAADCjBHgQywPLJkACgAyRiRACCgCAhAiAImaA4ZJgIYOLAkZGUIAhgkADIyAcQgIAOAAAAAAACAAAAAAAAAAQAAAAAAAAAAA==

> <PUBCHEM_IUPAC_OPENEYE_NAME>
N-[1-(1H-indol-2-yl)ethyl]propan-1-amine

> <PUBCHEM_IUPAC_CAS_NAME>
N-[1-(1H-indol-2-yl)ethyl]-1-propanamine

> <PUBCHEM_IUPAC_NAME>
N-[1-(1H-indol-2-yl)ethyl]propan-1-amine

> <PUBCHEM_IUPAC_SYSTEMATIC_NAME>
N-[1-(1H-indol-2-yl)ethyl]propan-1-amine

> <PUBCHEM_IUPAC_TRADITIONAL_NAME>
1-(1H-indol-2-yl)ethyl-propyl-amine

> <PUBCHEM_IUPAC_INCHI>
InChI=1S/C13H18N2/c1-3-8-14-10(2)13-9-11-6-4-5-7-12(11)15-13/h4-7,9-10,14-15H,3,8H2,1-2H3

> <PUBCHEM_IUPAC_INCHIKEY>
CZCOYUIKJUTDRO-UHFFFAOYSA-N

> <PUBCHEM_XLOGP3>
2.8

> <PUBCHEM_EXACT_MASS>
202.146999

> <PUBCHEM_MOLECULAR_FORMULA>
C13H18N2

> <PUBCHEM_MOLECULAR_WEIGHT>
202.29542

> <PUBCHEM_OPENEYE_CAN_SMILES>
CCCNC(C)C1=CC2=CC=CC=C2N1

> <PUBCHEM_OPENEYE_ISO_SMILES>
CCCNC(C)C1=CC2=CC=CC=C2N1

> <PUBCHEM_CACTVS_TPSA>
27.8

> <PUBCHEM_MONOISOTOPIC_WEIGHT>
202.146999

> <PUBCHEM_TOTAL_CHARGE>
0

> <PUBCHEM_HEAVY_ATOM_COUNT>
15

> <PUBCHEM_ATOM_DEF_STEREO_COUNT>
0

> <PUBCHEM_ATOM_UDEF_STEREO_COUNT>
1

> <PUBCHEM_BOND_DEF_STEREO_COUNT>
0

> <PUBCHEM_BOND_UDEF_STEREO_COUNT>
0

> <PUBCHEM_ISOTOPIC_ATOM_COUNT>
0

> <PUBCHEM_COMPONENT_COUNT>
1

> <PUBCHEM_CACTVS_TAUTO_COUNT>
1

> <PUBCHEM_COORDINATE_TYPE>
1
5
255

> <PUBCHEM_BONDANNOTATIONS>
11  14  8
12  15  8
14  15  8
2  4  8
2  6  8
3  9  3
4  5  8
5  7  8
6  11  8
6  7  8
7  12  8

$$$$
65337909
  -OEChem-11301218272D

 28 29  0     0  0  0  0  0  0999 V2000
    2.0000   -1.1970    0.0000 Br  0  0  0  0  0  0  0  0  0  0  0  0
    5.5443    0.6077    0.0000 N   0  0  0  0  0  0  0  0  0  0  0  0
    7.1279   -0.1970    0.0000 C   0  0  0  0  0  0  0  0  0  0  0  0
    6.1279   -0.1970    0.0000 C   0  0  0  0  0  0  0  0  0  0  0  0
    8.1279   -0.1970    0.0000 C   0  0  0  0  0  0  0  0  0  0  0  0
    7.1279   -1.1970    0.0000 C   0  0  0  0  0  0  0  0  0  0  0  0
    7.1279    0.8030    0.0000 C   0  0  0  0  0  0  0  0  0  0  0  0
    5.5443   -1.0018    0.0000 C   0  0  0  0  0  0  0  0  0  0  0  0
    4.5981   -0.6970    0.0000 C   0  0  0  0  0  0  0  0  0  0  0  0
    4.5981    0.3030    0.0000 C   0  0  0  0  0  0  0  0  0  0  0  0
    3.7320   -1.1970    0.0000 C   0  0  0  0  0  0  0  0  0  0  0  0
    3.7320    0.8030    0.0000 C   0  0  0  0  0  0  0  0  0  0  0  0
    2.8660   -0.6970    0.0000 C   0  0  0  0  0  0  0  0  0  0  0  0
    2.8660    0.3030    0.0000 C   0  0  0  0  0  0  0  0  0  0  0  0
    8.1279   -0.8170    0.0000 H   0  0  0  0  0  0  0  0  0  0  0  0
    8.7479   -0.1970    0.0000 H   0  0  0  0  0  0  0  0  0  0  0  0
    6.5079   -1.1970    0.0000 H   0  0  0  0  0  0  0  0  0  0  0  0
    7.1279   -1.8170    0.0000 H   0  0  0  0  0  0  0  0  0  0  0  0
    7.7479   -1.1970    0.0000 H   0  0  0  0  0  0  0  0  0  0  0  0
    7.7479    0.8030    0.0000 H   0  0  0  0  0  0  0  0  0  0  0  0
    7.1279    1.4230    0.0000 H   0  0  0  0  0  0  0  0  0  0  0  0
    6.5079    0.8030    0.0000 H   0  0  0  0  0  0  0  0  0  0  0  0
    8.1279    0.4230    0.0000 H   0  0  0  0  0  0  0  0  0  0  0  0
    5.7369    1.1970    0.0000 H   0  0  0  0  0  0  0  0  0  0  0  0
    5.7369   -1.5911    0.0000 H   0  0  0  0  0  0  0  0  0  0  0  0
    3.7320   -1.8170    0.0000 H   0  0  0  0  0  0  0  0  0  0  0  0
    3.7320    1.4230    0.0000 H   0  0  0  0  0  0  0  0  0  0  0  0
    2.3291    0.6130    0.0000 H   0  0  0  0  0  0  0  0  0  0  0  0
  1 13  1  0  0  0  0
  2  4  1  0  0  0  0
  2 10  1  0  0  0  0
  2 24  1  0  0  0  0
  3  4  1  0  0  0  0
  3  5  1  0  0  0  0
  3  6  1  0  0  0  0
  3  7  1  0  0  0  0
  4  8  2  0  0  0  0
  5 15  1  0  0  0  0
  5 16  1  0  0  0  0
  5 23  1  0  0  0  0
  6 17  1  0  0  0  0
  6 18  1  0  0  0  0
  6 19  1  0  0  0  0
  7 20  1  0  0  0  0
  7 21  1  0  0  0  0
  7 22  1  0  0  0  0
  8  9  1  0  0  0  0
  8 25  1  0  0  0  0
  9 10  2  0  0  0  0
  9 11  1  0  0  0  0
 10 12  1  0  0  0  0
 11 13  2  0  0  0  0
 11 26  1  0  0  0  0
 12 14  2  0  0  0  0
 12 27  1  0  0  0  0
 13 14  1  0  0  0  0
 14 28  1  0  0  0  0
M  END
> <PUBCHEM_COMPOUND_CID>
65337909

> <PUBCHEM_COMPOUND_CANONICALIZED>
1

> <PUBCHEM_CACTVS_COMPLEXITY>
209

> <PUBCHEM_CACTVS_HBOND_ACCEPTOR>
0

> <PUBCHEM_CACTVS_HBOND_DONOR>
1

> <PUBCHEM_CACTVS_ROTATABLE_BOND>
1

> <PUBCHEM_CACTVS_SUBSKEYS>
AAADccByAAAAEAAAAAAAAAAAAAAAAWAAAAAwAAAAAAAAAFgB8AAAHABQAAABrgiBHgAywPLJkACgAyRiRACCgCAhAiQImSAwZLgIIOLAkZGEIAhgkADIyhcQgMAPAAAgEAACAAAAAEAgAAQAAAAAAAAAAA==

> <PUBCHEM_IUPAC_OPENEYE_NAME>
5-bromo-2-tert-butyl-1H-indole

> <PUBCHEM_IUPAC_CAS_NAME>
5-bromo-2-tert-butyl-1H-indole

> <PUBCHEM_IUPAC_NAME>
5-bromo-2-tert-butyl-1H-indole

> <PUBCHEM_IUPAC_SYSTEMATIC_NAME>
5-bromanyl-2-tert-butyl-1H-indole

> <PUBCHEM_IUPAC_TRADITIONAL_NAME>
5-bromo-2-tert-butyl-1H-indole

> <PUBCHEM_IUPAC_INCHI>
InChI=1S/C12H14BrN/c1-12(2,3)11-7-8-6-9(13)4-5-10(8)14-11/h4-7,14H,1-3H3

> <PUBCHEM_IUPAC_INCHIKEY>
QBRGPQFMDNYEFQ-UHFFFAOYSA-N

> <PUBCHEM_XLOGP3>
4

> <PUBCHEM_EXACT_MASS>
251.030962

> <PUBCHEM_MOLECULAR_FORMULA>
C12H14BrN

> <PUBCHEM_MOLECULAR_WEIGHT>
252.15026

> <PUBCHEM_OPENEYE_CAN_SMILES>
CC(C)(C)C1=CC2=C(N1)C=CC(=C2)Br

> <PUBCHEM_OPENEYE_ISO_SMILES>
CC(C)(C)C1=CC2=C(N1)C=CC(=C2)Br

> <PUBCHEM_CACTVS_TPSA>
15.8

> <PUBCHEM_MONOISOTOPIC_WEIGHT>
251.030962

> <PUBCHEM_TOTAL_CHARGE>
0

> <PUBCHEM_HEAVY_ATOM_COUNT>
14

> <PUBCHEM_ATOM_DEF_STEREO_COUNT>
0

> <PUBCHEM_ATOM_UDEF_STEREO_COUNT>
0

> <PUBCHEM_BOND_DEF_STEREO_COUNT>
0

> <PUBCHEM_BOND_UDEF_STEREO_COUNT>
0

> <PUBCHEM_ISOTOPIC_ATOM_COUNT>
0

> <PUBCHEM_COMPONENT_COUNT>
1

> <PUBCHEM_CACTVS_TAUTO_COUNT>
1

> <PUBCHEM_COORDINATE_TYPE>
1
5
255

> <PUBCHEM_BONDANNOTATIONS>
10  12  8
11  13  8
12  14  8
13  14  8
2  10  8
2  4  8
4  8  8
8  9  8
9  10  8
9  11  8

$$$$
