60527374
  -OEChem-11301218192D

 36 38  0     0  0  0  0  0  0999 V2000
    7.7619   -2.1767    0.0000 Cl  0  0  0  0  0  0  0  0  0  0  0  0
    6.7619    1.2874    0.0000 O   0  0  0  0  0  0  0  0  0  0  0  0
    4.6783    1.2261    0.0000 N   0  0  0  0  0  0  0  0  0  0  0  0
    6.7619   -0.4446    0.0000 N   0  0  0  0  0  0  0  0  0  0  0  0
    3.7320    0.9214    0.0000 C   0  0  0  0  0  0  0  0  0  0  0  0
    5.2619    0.4214    0.0000 C   0  0  0  0  0  0  0  0  0  0  0  0
    3.7320   -0.0786    0.0000 C   0  0  0  0  0  0  0  0  0  0  0  0
    4.6783   -0.3833    0.0000 C   0  0  0  0  0  0  0  0  0  0  0  0
    2.8660    1.4214    0.0000 C   0  0  0  0  0  0  0  0  0  0  0  0
    4.9889    2.1767    0.0000 C   0  0  0  0  0  0  0  0  0  0  0  0
    6.2619    0.4214    0.0000 C   0  0  0  0  0  0  0  0  0  0  0  0
    2.8660   -0.5786    0.0000 C   0  0  0  0  0  0  0  0  0  0  0  0
    2.0000    0.9214    0.0000 C   0  0  0  0  0  0  0  0  0  0  0  0
    2.0000   -0.0786    0.0000 C   0  0  0  0  0  0  0  0  0  0  0  0
    7.7619   -0.4446    0.0000 C   0  0  0  0  0  0  0  0  0  0  0  0
    8.2619   -1.3106    0.0000 C   0  0  0  0  0  0  0  0  0  0  0  0
    8.2619    0.4214    0.0000 C   0  0  0  0  0  0  0  0  0  0  0  0
    9.7619   -0.4446    0.0000 C   0  0  0  0  0  0  0  0  0  0  0  0
    9.2619   -1.3106    0.0000 C   0  0  0  0  0  0  0  0  0  0  0  0
    9.2619    0.4214    0.0000 C   0  0  0  0  0  0  0  0  0  0  0  0
   10.7619   -0.4446    0.0000 C   0  0  0  0  0  0  0  0  0  0  0  0
    4.8709   -0.9726    0.0000 H   0  0  0  0  0  0  0  0  0  0  0  0
    2.8660    2.0414    0.0000 H   0  0  0  0  0  0  0  0  0  0  0  0
    5.5783    1.9840    0.0000 H   0  0  0  0  0  0  0  0  0  0  0  0
    5.1815    2.7660    0.0000 H   0  0  0  0  0  0  0  0  0  0  0  0
    4.3996    2.3693    0.0000 H   0  0  0  0  0  0  0  0  0  0  0  0
    2.8660   -1.1986    0.0000 H   0  0  0  0  0  0  0  0  0  0  0  0
    1.4631    1.2314    0.0000 H   0  0  0  0  0  0  0  0  0  0  0  0
    6.4519   -0.9815    0.0000 H   0  0  0  0  0  0  0  0  0  0  0  0
    1.4631   -0.3886    0.0000 H   0  0  0  0  0  0  0  0  0  0  0  0
    7.9519    0.9583    0.0000 H   0  0  0  0  0  0  0  0  0  0  0  0
    9.5719   -1.8476    0.0000 H   0  0  0  0  0  0  0  0  0  0  0  0
    9.5719    0.9583    0.0000 H   0  0  0  0  0  0  0  0  0  0  0  0
   10.7619   -1.0646    0.0000 H   0  0  0  0  0  0  0  0  0  0  0  0
   11.3819   -0.4446    0.0000 H   0  0  0  0  0  0  0  0  0  0  0  0
   10.7619    0.1754    0.0000 H   0  0  0  0  0  0  0  0  0  0  0  0
  1 16  1  0  0  0  0
  2 11  2  0  0  0  0
  3  5  1  0  0  0  0
  3  6  1  0  0  0  0
  3 10  1  0  0  0  0
  4 11  1  0  0  0  0
  4 15  1  0  0  0  0
  4 29  1  0  0  0  0
  5  7  1  0  0  0  0
  5  9  2  0  0  0  0
  6  8  2  0  0  0  0
  6 11  1  0  0  0  0
  7  8  1  0  0  0  0
  7 12  2  0  0  0  0
  8 22  1  0  0  0  0
  9 13  1  0  0  0  0
  9 23  1  0  0  0  0
 10 24  1  0  0  0  0
 10 25  1  0  0  0  0
 10 26  1  0  0  0  0
 12 14  1  0  0  0  0
 12 27  1  0  0  0  0
 13 14  2  0  0  0  0
 13 28  1  0  0  0  0
 14 30  1  0  0  0  0
 15 16  2  0  0  0  0
 15 17  1  0  0  0  0
 16 19  1  0  0  0  0
 17 20  2  0  0  0  0
 17 31  1  0  0  0  0
 18 19  2  0  0  0  0
 18 20  1  0  0  0  0
 18 21  1  0  0  0  0
 19 32  1  0  0  0  0
 20 33  1  0  0  0  0
 21 34  1  0  0  0  0
 21 35  1  0  0  0  0
 21 36  1  0  0  0  0
M  END
> <PUBCHEM_COMPOUND_CID>
60527374

> <PUBCHEM_COMPOUND_CANONICALIZED>
1

> <PUBCHEM_CACTVS_COMPLEXITY>
389

> <PUBCHEM_CACTVS_HBOND_ACCEPTOR>
1

> <PUBCHEM_CACTVS_HBOND_DONOR>
1

> <PUBCHEM_CACTVS_ROTATABLE_BOND>
2

> <PUBCHEM_CACTVS_SUBSKEYS>
AAADccB7IAAEAAAAAAAAAAAAAAAAAWAAAAAwYAAAAAAAAFgB9AAAHgIQAAAADAqBniQywPPMEACoAyVyVACCgCAnByAI2CG4ZtgIYPLBl7HUIQhglADIyYcYiYCeCAAAIAACABAQAABAAAQAIAAAAAAAAA==

> <PUBCHEM_IUPAC_OPENEYE_NAME>
N-(2-chloro-4-methyl-phenyl)-1-methyl-indole-2-carboxamide

> <PUBCHEM_IUPAC_CAS_NAME>
N-(2-chloro-4-methylphenyl)-1-methyl-2-indolecarboxamide

> <PUBCHEM_IUPAC_NAME>
N-(2-chloro-4-methylphenyl)-1-methylindole-2-carboxamide

> <PUBCHEM_IUPAC_SYSTEMATIC_NAME>
N-(2-chloranyl-4-methyl-phenyl)-1-methyl-indole-2-carboxamide

> <PUBCHEM_IUPAC_TRADITIONAL_NAME>
N-(2-chloro-4-methyl-phenyl)-1-methyl-indole-2-carboxamide

> <PUBCHEM_IUPAC_INCHI>
InChI=1S/C17H15ClN2O/c1-11-7-8-14(13(18)9-11)19-17(21)16-10-12-5-3-4-6-15(12)20(16)2/h3-10H,1-2H3,(H,19,21)

> <PUBCHEM_IUPAC_INCHIKEY>
PSZYQNSNRSLHLM-UHFFFAOYSA-N

> <PUBCHEM_XLOGP3>
4.3

> <PUBCHEM_EXACT_MASS>
298.087291

> <PUBCHEM_MOLECULAR_FORMULA>
C17H15ClN2O

> <PUBCHEM_MOLECULAR_WEIGHT>
298.7668

> <PUBCHEM_OPENEYE_CAN_SMILES>
CC1=CC(=C(C=C1)NC(=O)C2=CC3=CC=CC=C3N2C)Cl

> <PUBCHEM_OPENEYE_ISO_SMILES>
CC1=CC(=C(C=C1)NC(=O)C2=CC3=CC=CC=C3N2C)Cl

> <PUBCHEM_CACTVS_TPSA>
34

> <PUBCHEM_MONOISOTOPIC_WEIGHT>
298.087291

> <PUBCHEM_TOTAL_CHARGE>
0

> <PUBCHEM_HEAVY_ATOM_COUNT>
21

> <PUBCHEM_ATOM_DEF_STEREO_COUNT>
0

> <PUBCHEM_ATOM_UDEF_STEREO_COUNT>
0

> <PUBCHEM_BOND_DEF_STEREO_COUNT>
0

> <PUBCHEM_BOND_UDEF_STEREO_COUNT>
0

> <PUBCHEM_ISOTOPIC_ATOM_COUNT>
0

> <PUBCHEM_COMPONENT_COUNT>
1

> <PUBCHEM_CACTVS_TAUTO_COUNT>
2

> <PUBCHEM_COORDINATE_TYPE>
1
5
255

> <PUBCHEM_BONDANNOTATIONS>
12  14  8
13  14  8
15  16  8
15  17  8
16  19  8
17  20  8
18  19  8
18  20  8
3  5  8
3  6  8
5  7  8
5  9  8
6  8  8
7  12  8
7  8  8
9  13  8

$$$$
60527540
  -OEChem-11301218192D

 52 54  0     0  0  0  0  0  0999 V2000
    5.9249    0.4152    0.0000 O   0  0  0  0  0  0  0  0  0  0  0  0
    4.5981   -0.6981    0.0000 N   0  0  0  0  0  0  0  0  0  0  0  0
    3.9965    2.7133    0.0000 C   0  0  0  0  0  0  0  0  0  0  0  0
    5.6241    2.1209    0.0000 C   0  0  0  0  0  0  0  0  0  0  0  0
    3.8229    3.6981    0.0000 C   0  0  0  0  0  0  0  0  0  0  0  0
    3.0568    3.0553    0.0000 C   0  0  0  0  0  0  0  0  0  0  0  0
    6.5638    1.7789    0.0000 C   0  0  0  0  0  0  0  0  0  0  0  0
    6.3902    2.7637    0.0000 C   0  0  0  0  0  0  0  0  0  0  0  0
    4.6393    1.9473    0.0000 C   0  0  0  0  0  0  0  0  0  0  0  0
    4.2973    1.0076    0.0000 C   0  0  0  0  0  0  0  0  0  0  0  0
    4.9401    0.2416    0.0000 C   0  0  0  0  0  0  0  0  0  0  0  0
    4.5981   -1.6981    0.0000 C   0  0  0  0  0  0  0  0  0  0  0  0
    5.4641   -2.1981    0.0000 C   0  0  0  0  0  0  0  0  0  0  0  0
    3.7320   -2.1981    0.0000 C   0  0  0  0  0  0  0  0  0  0  0  0
    6.3301   -1.6981    0.0000 C   0  0  0  0  0  0  0  0  0  0  0  0
    2.8660   -1.6981    0.0000 C   0  0  0  0  0  0  0  0  0  0  0  0
    5.4641   -3.1981    0.0000 C   0  0  0  0  0  0  0  0  0  0  0  0
    3.7320   -3.1981    0.0000 C   0  0  0  0  0  0  0  0  0  0  0  0
    4.5981   -3.6981    0.0000 C   0  0  0  0  0  0  0  0  0  0  0  0
    7.1962   -2.1981    0.0000 C   0  0  0  0  0  0  0  0  0  0  0  0
    6.9729   -0.9321    0.0000 C   0  0  0  0  0  0  0  0  0  0  0  0
    2.0000   -2.1981    0.0000 C   0  0  0  0  0  0  0  0  0  0  0  0
    2.8660   -0.6981    0.0000 C   0  0  0  0  0  0  0  0  0  0  0  0
    3.6409    2.2055    0.0000 H   0  0  0  0  0  0  0  0  0  0  0  0
    5.5701    1.5033    0.0000 H   0  0  0  0  0  0  0  0  0  0  0  0
    4.4055    3.9102    0.0000 H   0  0  0  0  0  0  0  0  0  0  0  0
    3.5129    4.2351    0.0000 H   0  0  0  0  0  0  0  0  0  0  0  0
    2.5819    3.4539    0.0000 H   0  0  0  0  0  0  0  0  0  0  0  0
    2.7468    2.5184    0.0000 H   0  0  0  0  0  0  0  0  0  0  0  0
    6.4562    1.1683    0.0000 H   0  0  0  0  0  0  0  0  0  0  0  0
    7.1838    1.7789    0.0000 H   0  0  0  0  0  0  0  0  0  0  0  0
    6.9728    2.9758    0.0000 H   0  0  0  0  0  0  0  0  0  0  0  0
    6.0802    3.3007    0.0000 H   0  0  0  0  0  0  0  0  0  0  0  0
    3.6867    0.8999    0.0000 H   0  0  0  0  0  0  0  0  0  0  0  0
    4.0611   -0.3881    0.0000 H   0  0  0  0  0  0  0  0  0  0  0  0
    5.9316   -1.2232    0.0000 H   0  0  0  0  0  0  0  0  0  0  0  0
    2.8660   -2.3181    0.0000 H   0  0  0  0  0  0  0  0  0  0  0  0
    6.0010   -3.5081    0.0000 H   0  0  0  0  0  0  0  0  0  0  0  0
    3.1951   -3.5081    0.0000 H   0  0  0  0  0  0  0  0  0  0  0  0
    4.5981   -4.3181    0.0000 H   0  0  0  0  0  0  0  0  0  0  0  0
    7.4479   -1.3306    0.0000 H   0  0  0  0  0  0  0  0  0  0  0  0
    7.3714   -0.4571    0.0000 H   0  0  0  0  0  0  0  0  0  0  0  0
    6.4980   -0.5336    0.0000 H   0  0  0  0  0  0  0  0  0  0  0  0
    6.8862   -2.7351    0.0000 H   0  0  0  0  0  0  0  0  0  0  0  0
    7.7331   -2.5081    0.0000 H   0  0  0  0  0  0  0  0  0  0  0  0
    7.5062   -1.6612    0.0000 H   0  0  0  0  0  0  0  0  0  0  0  0
    1.6900   -1.6612    0.0000 H   0  0  0  0  0  0  0  0  0  0  0  0
    1.4631   -2.5081    0.0000 H   0  0  0  0  0  0  0  0  0  0  0  0
    2.3100   -2.7351    0.0000 H   0  0  0  0  0  0  0  0  0  0  0  0
    3.4860   -0.6981    0.0000 H   0  0  0  0  0  0  0  0  0  0  0  0
    2.8660   -0.0781    0.0000 H   0  0  0  0  0  0  0  0  0  0  0  0
    2.2460   -0.6981    0.0000 H   0  0  0  0  0  0  0  0  0  0  0  0
  1 11  2  0  0  0  0
  2 11  1  0  0  0  0
  2 12  1  0  0  0  0
  2 35  1  0  0  0  0
  3  5  1  0  0  0  0
  3  6  1  0  0  0  0
  3  9  1  0  0  0  0
  3 24  1  0  0  0  0
  4  7  1  0  0  0  0
  4  8  1  0  0  0  0
  4  9  1  0  0  0  0
  4 25  1  0  0  0  0
  5  6  1  0  0  0  0
  5 26  1  0  0  0  0
  5 27  1  0  0  0  0
  6 28  1  0  0  0  0
  6 29  1  0  0  0  0
  7  8  1  0  0  0  0
  7 30  1  0  0  0  0
  7 31  1  0  0  0  0
  8 32  1  0  0  0  0
  8 33  1  0  0  0  0
  9 10  2  0  0  0  0
 10 11  1  0  0  0  0
 10 34  1  0  0  0  0
 12 13  2  0  0  0  0
 12 14  1  0  0  0  0
 13 15  1  0  0  0  0
 13 17  1  0  0  0  0
 14 16  1  0  0  0  0
 14 18  2  0  0  0  0
 15 20  1  0  0  0  0
 15 21  1  0  0  0  0
 15 36  1  0  0  0  0
 16 22  1  0  0  0  0
 16 23  1  0  0  0  0
 16 37  1  0  0  0  0
 17 19  2  0  0  0  0
 17 38  1  0  0  0  0
 18 19  1  0  0  0  0
 18 39  1  0  0  0  0
 19 40  1  0  0  0  0
 20 44  1  0  0  0  0
 20 45  1  0  0  0  0
 20 46  1  0  0  0  0
 21 41  1  0  0  0  0
 21 42  1  0  0  0  0
 21 43  1  0  0  0  0
 22 47  1  0  0  0  0
 22 48  1  0  0  0  0
 22 49  1  0  0  0  0
 23 50  1  0  0  0  0
 23 51  1  0  0  0  0
 23 52  1  0  0  0  0
M  END
> <PUBCHEM_COMPOUND_CID>
60527540

> <PUBCHEM_COMPOUND_CANONICALIZED>
1

> <PUBCHEM_CACTVS_COMPLEXITY>
427

> <PUBCHEM_CACTVS_HBOND_ACCEPTOR>
1

> <PUBCHEM_CACTVS_HBOND_DONOR>
1

> <PUBCHEM_CACTVS_ROTATABLE_BOND>
6

> <PUBCHEM_CACTVS_SUBSKEYS>
AAADceB6IAAAAAAAAAAAAAAAGDAAAAAAAAAwAAAAAAAAAAABAAAAHgAQAAAADQiBmAAywILAAACIAiVSUACCAAAhAAAIiAAARMgIICLAkZGEIAhglADIyQcQgMAOgAACAAACAAAAAAQAAAQAAAAAAAAAAA==

> <PUBCHEM_IUPAC_OPENEYE_NAME>
3,3-dicyclopropyl-N-(2,6-diisopropylphenyl)prop-2-enamide

> <PUBCHEM_IUPAC_CAS_NAME>
3,3-dicyclopropyl-N-[2,6-di(propan-2-yl)phenyl]-2-propenamide

> <PUBCHEM_IUPAC_NAME>
3,3-dicyclopropyl-N-[2,6-di(propan-2-yl)phenyl]prop-2-enamide

> <PUBCHEM_IUPAC_SYSTEMATIC_NAME>
3,3-dicyclopropyl-N-[2,6-di(propan-2-yl)phenyl]prop-2-enamide

> <PUBCHEM_IUPAC_TRADITIONAL_NAME>
3,3-dicyclopropyl-N-(2,6-diisopropylphenyl)acrylamide

> <PUBCHEM_IUPAC_INCHI>
InChI=1S/C21H29NO/c1-13(2)17-6-5-7-18(14(3)4)21(17)22-20(23)12-19(15-8-9-15)16-10-11-16/h5-7,12-16H,8-11H2,1-4H3,(H,22,23)

> <PUBCHEM_IUPAC_INCHIKEY>
ROQKCUBDQSDQAP-UHFFFAOYSA-N

> <PUBCHEM_XLOGP3>
4.9

> <PUBCHEM_EXACT_MASS>
311.224915

> <PUBCHEM_MOLECULAR_FORMULA>
C21H29NO

> <PUBCHEM_MOLECULAR_WEIGHT>
311.46106

> <PUBCHEM_OPENEYE_CAN_SMILES>
CC(C)C1=C(C(=CC=C1)C(C)C)NC(=O)C=C(C2CC2)C3CC3

> <PUBCHEM_OPENEYE_ISO_SMILES>
CC(C)C1=C(C(=CC=C1)C(C)C)NC(=O)C=C(C2CC2)C3CC3

> <PUBCHEM_CACTVS_TPSA>
29.1

> <PUBCHEM_MONOISOTOPIC_WEIGHT>
311.224915

> <PUBCHEM_TOTAL_CHARGE>
0

> <PUBCHEM_HEAVY_ATOM_COUNT>
23

> <PUBCHEM_ATOM_DEF_STEREO_COUNT>
0

> <PUBCHEM_ATOM_UDEF_STEREO_COUNT>
0

> <PUBCHEM_BOND_DEF_STEREO_COUNT>
0

> <PUBCHEM_BOND_UDEF_STEREO_COUNT>
0

> <PUBCHEM_ISOTOPIC_ATOM_COUNT>
0

> <PUBCHEM_COMPONENT_COUNT>
1

> <PUBCHEM_CACTVS_TAUTO_COUNT>
2

> <PUBCHEM_COORDINATE_TYPE>
1
5
255

> <PUBCHEM_BONDANNOTATIONS>
12  13  8
12  14  8
13  17  8
14  18  8
17  19  8
18  19  8

$$$$
60538133
  -OEChem-11301218202D

 26 26  0     1  0  0  0  0  0999 V2000
    2.0000   -2.5000    0.0000 Br  0  0  0  0  0  0  0  0  0  0  0  0
    4.5981    1.0000    0.0000 N   0  0  3  0  0  0  0  0  0  0  0  0
    3.7320    0.5000    0.0000 C   0  0  0  0  0  0  0  0  0  0  0  0
    4.5981    2.0000    0.0000 C   0  0  0  0  0  0  0  0  0  0  0  0
    3.7320   -0.5000    0.0000 C   0  0  0  0  0  0  0  0  0  0  0  0
    5.4641    0.5000    0.0000 C   0  0  0  0  0  0  0  0  0  0  0  0
    5.4641    2.5000    0.0000 C   0  0  0  0  0  0  0  0  0  0  0  0
    2.8660   -1.0000    0.0000 C   0  0  0  0  0  0  0  0  0  0  0  0
    4.5981   -1.0000    0.0000 C   0  0  0  0  0  0  0  0  0  0  0  0
    2.8660   -2.0000    0.0000 C   0  0  0  0  0  0  0  0  0  0  0  0
    4.5981   -2.0000    0.0000 C   0  0  0  0  0  0  0  0  0  0  0  0
    3.7320   -2.5000    0.0000 C   0  0  0  0  0  0  0  0  0  0  0  0
    3.5200    1.0826    0.0000 H   0  0  0  0  0  0  0  0  0  0  0  0
    3.1215    0.3923    0.0000 H   0  0  0  0  0  0  0  0  0  0  0  0
    4.3860    2.5826    0.0000 H   0  0  0  0  0  0  0  0  0  0  0  0
    3.9875    1.8923    0.0000 H   0  0  0  0  0  0  0  0  0  0  0  0
    5.1541   -0.0369    0.0000 H   0  0  0  0  0  0  0  0  0  0  0  0
    6.0010    0.1900    0.0000 H   0  0  0  0  0  0  0  0  0  0  0  0
    5.7741    1.0369    0.0000 H   0  0  0  0  0  0  0  0  0  0  0  0
    5.7741    1.9631    0.0000 H   0  0  0  0  0  0  0  0  0  0  0  0
    6.0010    2.8100    0.0000 H   0  0  0  0  0  0  0  0  0  0  0  0
    5.1541    3.0369    0.0000 H   0  0  0  0  0  0  0  0  0  0  0  0
    2.3291   -0.6900    0.0000 H   0  0  0  0  0  0  0  0  0  0  0  0
    5.1350   -0.6900    0.0000 H   0  0  0  0  0  0  0  0  0  0  0  0
    5.1350   -2.3100    0.0000 H   0  0  0  0  0  0  0  0  0  0  0  0
    3.7320   -3.1200    0.0000 H   0  0  0  0  0  0  0  0  0  0  0  0
  1 10  1  0  0  0  0
  2  3  1  0  0  0  0
  2  4  1  0  0  0  0
  2  6  1  0  0  0  0
  3  5  1  0  0  0  0
  3 13  1  0  0  0  0
  3 14  1  0  0  0  0
  4  7  1  0  0  0  0
  4 15  1  0  0  0  0
  4 16  1  0  0  0  0
  5  8  2  0  0  0  0
  5  9  1  0  0  0  0
  6 17  1  0  0  0  0
  6 18  1  0  0  0  0
  6 19  1  0  0  0  0
  7 20  1  0  0  0  0
  7 21  1  0  0  0  0
  7 22  1  0  0  0  0
  8 10  1  0  0  0  0
  8 23  1  0  0  0  0
  9 11  2  0  0  0  0
  9 24  1  0  0  0  0
 10 12  2  0  0  0  0
 11 12  1  0  0  0  0
 11 25  1  0  0  0  0
 12 26  1  0  0  0  0
M  END
> <PUBCHEM_COMPOUND_CID>
60538133

> <PUBCHEM_COMPOUND_CANONICALIZED>
1

> <PUBCHEM_CACTVS_COMPLEXITY>
127

> <PUBCHEM_CACTVS_HBOND_ACCEPTOR>
1

> <PUBCHEM_CACTVS_HBOND_DONOR>
0

> <PUBCHEM_CACTVS_ROTATABLE_BOND>
3

> <PUBCHEM_CACTVS_SUBSKEYS>
AAADccByAAAAEAAAAAAAAAAAAAAAAAAAAAAwAAAAAAAAAAABAAAAHABAAAABrADBGAQyAIMAAACAAiBCAACCAAAgAAQIiAAIBKgIICKAkRGEIAhggACIihcQgAAOAAAAEAAAAAAAAAAgAAAAAAAAAAAAAA==

> <PUBCHEM_IUPAC_OPENEYE_NAME>
N-[(3-bromophenyl)methyl]-N-methyl-ethanamine

> <PUBCHEM_IUPAC_CAS_NAME>
N-[(3-bromophenyl)methyl]-N-methylethanamine

> <PUBCHEM_IUPAC_NAME>
N-[(3-bromophenyl)methyl]-N-methylethanamine

> <PUBCHEM_IUPAC_SYSTEMATIC_NAME>
N-[(3-bromophenyl)methyl]-N-methyl-ethanamine

> <PUBCHEM_IUPAC_TRADITIONAL_NAME>
(3-bromobenzyl)-ethyl-methyl-amine

> <PUBCHEM_IUPAC_INCHI>
InChI=1S/C10H14BrN/c1-3-12(2)8-9-5-4-6-10(11)7-9/h4-7H,3,8H2,1-2H3

> <PUBCHEM_IUPAC_INCHIKEY>
UMJPEHHTUDEWEG-UHFFFAOYSA-N

> <PUBCHEM_XLOGP3>
3.1

> <PUBCHEM_EXACT_MASS>
227.030962

> <PUBCHEM_MOLECULAR_FORMULA>
C10H14BrN

> <PUBCHEM_MOLECULAR_WEIGHT>
228.12886

> <PUBCHEM_OPENEYE_CAN_SMILES>
CCN(C)CC1=CC(=CC=C1)Br

> <PUBCHEM_OPENEYE_ISO_SMILES>
CCN(C)CC1=CC(=CC=C1)Br

> <PUBCHEM_CACTVS_TPSA>
3.2

> <PUBCHEM_MONOISOTOPIC_WEIGHT>
227.030962

> <PUBCHEM_TOTAL_CHARGE>
0

> <PUBCHEM_HEAVY_ATOM_COUNT>
12

> <PUBCHEM_ATOM_DEF_STEREO_COUNT>
0

> <PUBCHEM_ATOM_UDEF_STEREO_COUNT>
0

> <PUBCHEM_BOND_DEF_STEREO_COUNT>
0

> <PUBCHEM_BOND_UDEF_STEREO_COUNT>
0

> <PUBCHEM_ISOTOPIC_ATOM_COUNT>
0

> <PUBCHEM_COMPONENT_COUNT>
1

> <PUBCHEM_CACTVS_TAUTO_COUNT>
1

> <PUBCHEM_COORDINATE_TYPE>
1
5
255

> <PUBCHEM_BONDANNOTATIONS>
10  12  8
11  12  8
5  8  8
5  9  8
8  10  8
9  11  8

$$$$
