55818966
  -OEChem-11301218092D

 42 43  0     0  0  0  0  0  0999 V2000
    3.7320    0.3170    0.0000 S   0  0  0  0  0  0  0  0  0  0  0  0
    8.9282    5.3170    0.0000 F   0  0  0  0  0  0  0  0  0  0  0  0
    7.5622    5.6830    0.0000 F   0  0  0  0  0  0  0  0  0  0  0  0
    8.5622    3.9510    0.0000 F   0  0  0  0  0  0  0  0  0  0  0  0
    4.7320    0.3170    0.0000 O   0  0  0  0  0  0  0  0  0  0  0  0
    2.7320    0.3170    0.0000 O   0  0  0  0  0  0  0  0  0  0  0  0
    7.1962    3.3170    0.0000 O   0  0  0  0  0  0  0  0  0  0  0  0
    2.8660   -4.1830    0.0000 O   0  0  0  0  0  0  0  0  0  0  0  0
    4.5981   -4.1830    0.0000 O   0  0  0  0  0  0  0  0  0  0  0  0
    3.7320    1.3170    0.0000 N   0  0  0  0  0  0  0  0  0  0  0  0
    6.3301    1.8170    0.0000 N   0  0  0  0  0  0  0  0  0  0  0  0
    3.7320   -0.6830    0.0000 C   0  0  0  0  0  0  0  0  0  0  0  0
    2.8660   -1.1830    0.0000 C   0  0  0  0  0  0  0  0  0  0  0  0
    4.5981   -1.1830    0.0000 C   0  0  0  0  0  0  0  0  0  0  0  0
    4.5981    1.8170    0.0000 C   0  0  0  0  0  0  0  0  0  0  0  0
    3.7320   -2.6830    0.0000 C   0  0  0  0  0  0  0  0  0  0  0  0
    2.8660   -2.1830    0.0000 C   0  0  0  0  0  0  0  0  0  0  0  0
    4.5981   -2.1830    0.0000 C   0  0  0  0  0  0  0  0  0  0  0  0
    4.5981    2.8170    0.0000 C   0  0  0  0  0  0  0  0  0  0  0  0
    5.4641    1.3170    0.0000 C   0  0  0  0  0  0  0  0  0  0  0  0
    5.4641    3.3170    0.0000 C   0  0  0  0  0  0  0  0  0  0  0  0
    3.7320   -3.6830    0.0000 C   0  0  0  0  0  0  0  0  0  0  0  0
    6.3301    2.8170    0.0000 C   0  0  0  0  0  0  0  0  0  0  0  0
    7.1962    4.3170    0.0000 C   0  0  0  0  0  0  0  0  0  0  0  0
    2.8660   -5.1830    0.0000 C   0  0  0  0  0  0  0  0  0  0  0  0
    8.0622    4.8170    0.0000 C   0  0  0  0  0  0  0  0  0  0  0  0
    2.0000   -5.6830    0.0000 C   0  0  0  0  0  0  0  0  0  0  0  0
    3.1951    1.6270    0.0000 H   0  0  0  0  0  0  0  0  0  0  0  0
    2.3291   -0.8730    0.0000 H   0  0  0  0  0  0  0  0  0  0  0  0
    5.1350   -0.8730    0.0000 H   0  0  0  0  0  0  0  0  0  0  0  0
    2.3291   -2.4930    0.0000 H   0  0  0  0  0  0  0  0  0  0  0  0
    5.1350   -2.4930    0.0000 H   0  0  0  0  0  0  0  0  0  0  0  0
    4.0611    3.1270    0.0000 H   0  0  0  0  0  0  0  0  0  0  0  0
    5.4641    0.6970    0.0000 H   0  0  0  0  0  0  0  0  0  0  0  0
    5.4641    3.9370    0.0000 H   0  0  0  0  0  0  0  0  0  0  0  0
    6.9841    4.8996    0.0000 H   0  0  0  0  0  0  0  0  0  0  0  0
    6.5856    4.2093    0.0000 H   0  0  0  0  0  0  0  0  0  0  0  0
    3.0781   -5.7656    0.0000 H   0  0  0  0  0  0  0  0  0  0  0  0
    3.4766   -5.0754    0.0000 H   0  0  0  0  0  0  0  0  0  0  0  0
    1.6900   -5.1461    0.0000 H   0  0  0  0  0  0  0  0  0  0  0  0
    1.4631   -5.9930    0.0000 H   0  0  0  0  0  0  0  0  0  0  0  0
    2.3100   -6.2200    0.0000 H   0  0  0  0  0  0  0  0  0  0  0  0
  1  5  2  0  0  0  0
  1  6  2  0  0  0  0
  1 10  1  0  0  0  0
  1 12  1  0  0  0  0
  2 26  1  0  0  0  0
  3 26  1  0  0  0  0
  4 26  1  0  0  0  0
  7 23  1  0  0  0  0
  7 24  1  0  0  0  0
  8 22  1  0  0  0  0
  8 25  1  0  0  0  0
  9 22  2  0  0  0  0
 10 15  1  0  0  0  0
 10 28  1  0  0  0  0
 11 20  1  0  0  0  0
 11 23  2  0  0  0  0
 12 13  2  0  0  0  0
 12 14  1  0  0  0  0
 13 17  1  0  0  0  0
 13 29  1  0  0  0  0
 14 18  2  0  0  0  0
 14 30  1  0  0  0  0
 15 19  1  0  0  0  0
 15 20  2  0  0  0  0
 16 17  2  0  0  0  0
 16 18  1  0  0  0  0
 16 22  1  0  0  0  0
 17 31  1  0  0  0  0
 18 32  1  0  0  0  0
 19 21  2  0  0  0  0
 19 33  1  0  0  0  0
 20 34  1  0  0  0  0
 21 23  1  0  0  0  0
 21 35  1  0  0  0  0
 24 26  1  0  0  0  0
 24 36  1  0  0  0  0
 24 37  1  0  0  0  0
 25 27  1  0  0  0  0
 25 38  1  0  0  0  0
 25 39  1  0  0  0  0
 27 40  1  0  0  0  0
 27 41  1  0  0  0  0
 27 42  1  0  0  0  0
M  END
> <PUBCHEM_COMPOUND_CID>
55818966

> <PUBCHEM_COMPOUND_CANONICALIZED>
1

> <PUBCHEM_CACTVS_COMPLEXITY>
586

> <PUBCHEM_CACTVS_HBOND_ACCEPTOR>
10

> <PUBCHEM_CACTVS_HBOND_DONOR>
1

> <PUBCHEM_CACTVS_ROTATABLE_BOND>
8

> <PUBCHEM_CACTVS_SUBSKEYS>
AAADccB7OYBAAAAAAAAAAAAAAAAAAAAAAAA8QAAAAAAAAAABwAAAHwQQQAAADAjh2hY+zZJIFAKoAjT3THDCiDA1MiAI2Dk+fNgMZvLEtZueOSjk0BHI6Ye42CCOEAAAAAAAAAAgAAAAAAAAAAAAAAAAAA==

> <PUBCHEM_IUPAC_OPENEYE_NAME>
ethyl 4-[[6-(2,2,2-trifluoroethoxy)-3-pyridyl]sulfamoyl]benzoate

> <PUBCHEM_IUPAC_CAS_NAME>
4-[[6-(2,2,2-trifluoroethoxy)-3-pyridinyl]sulfamoyl]benzoic acid ethyl ester

> <PUBCHEM_IUPAC_NAME>
ethyl 4-[[6-(2,2,2-trifluoroethoxy)pyridin-3-yl]sulfamoyl]benzoate

> <PUBCHEM_IUPAC_SYSTEMATIC_NAME>
ethyl 4-[[6-[2,2,2-tris(fluoranyl)ethoxy]pyridin-3-yl]sulfamoyl]benzoate

> <PUBCHEM_IUPAC_TRADITIONAL_NAME>
4-[[6-(2,2,2-trifluoroethoxy)-3-pyridyl]sulfamoyl]benzoic acid ethyl ester

> <PUBCHEM_IUPAC_INCHI>
InChI=1S/C16H15F3N2O5S/c1-2-25-15(22)11-3-6-13(7-4-11)27(23,24)21-12-5-8-14(20-9-12)26-10-16(17,18)19/h3-9,21H,2,10H2,1H3

> <PUBCHEM_IUPAC_INCHIKEY>
CBKGQKAUJZBPLG-UHFFFAOYSA-N

> <PUBCHEM_XLOGP3>
3.6

> <PUBCHEM_EXACT_MASS>
404.065377

> <PUBCHEM_MOLECULAR_FORMULA>
C16H15F3N2O5S

> <PUBCHEM_MOLECULAR_WEIGHT>
404.36091

> <PUBCHEM_OPENEYE_CAN_SMILES>
CCOC(=O)C1=CC=C(C=C1)S(=O)(=O)NC2=CN=C(C=C2)OCC(F)(F)F

> <PUBCHEM_OPENEYE_ISO_SMILES>
CCOC(=O)C1=CC=C(C=C1)S(=O)(=O)NC2=CN=C(C=C2)OCC(F)(F)F

> <PUBCHEM_CACTVS_TPSA>
103

> <PUBCHEM_MONOISOTOPIC_WEIGHT>
404.065377

> <PUBCHEM_TOTAL_CHARGE>
0

> <PUBCHEM_HEAVY_ATOM_COUNT>
27

> <PUBCHEM_ATOM_DEF_STEREO_COUNT>
0

> <PUBCHEM_ATOM_UDEF_STEREO_COUNT>
0

> <PUBCHEM_BOND_DEF_STEREO_COUNT>
0

> <PUBCHEM_BOND_UDEF_STEREO_COUNT>
0

> <PUBCHEM_ISOTOPIC_ATOM_COUNT>
0

> <PUBCHEM_COMPONENT_COUNT>
1

> <PUBCHEM_CACTVS_TAUTO_COUNT>
1

> <PUBCHEM_COORDINATE_TYPE>
1
5
255

> <PUBCHEM_BONDANNOTATIONS>
11  20  8
11  23  8
12  13  8
12  14  8
13  17  8
14  18  8
15  19  8
15  20  8
16  17  8
16  18  8
19  21  8
21  23  8

$$$$
55820644
  -OEChem-11301218092D

 44 45  0     0  0  0  0  0  0999 V2000
    3.7320    0.8170    0.0000 S   0  0  0  0  0  0  0  0  0  0  0  0
    8.9282    5.8170    0.0000 F   0  0  0  0  0  0  0  0  0  0  0  0
    7.5622    6.1830    0.0000 F   0  0  0  0  0  0  0  0  0  0  0  0
    8.5622    4.4510    0.0000 F   0  0  0  0  0  0  0  0  0  0  0  0
    3.7320   -3.1830    0.0000 O   0  0  0  0  0  0  0  0  0  0  0  0
    4.7320    0.8170    0.0000 O   0  0  0  0  0  0  0  0  0  0  0  0
    2.7320    0.8170    0.0000 O   0  0  0  0  0  0  0  0  0  0  0  0
    7.1962    3.8170    0.0000 O   0  0  0  0  0  0  0  0  0  0  0  0
    2.0000   -5.1830    0.0000 O   0  0  0  0  0  0  0  0  0  0  0  0
    3.7320    1.8170    0.0000 N   0  0  0  0  0  0  0  0  0  0  0  0
    6.3301    2.3170    0.0000 N   0  0  0  0  0  0  0  0  0  0  0  0
    3.7320   -0.1830    0.0000 C   0  0  0  0  0  0  0  0  0  0  0  0
    2.8660   -0.6830    0.0000 C   0  0  0  0  0  0  0  0  0  0  0  0
    4.5981   -0.6830    0.0000 C   0  0  0  0  0  0  0  0  0  0  0  0
    3.7320   -2.1830    0.0000 C   0  0  0  0  0  0  0  0  0  0  0  0
    4.5981    2.3170    0.0000 C   0  0  0  0  0  0  0  0  0  0  0  0
    2.8660   -1.6830    0.0000 C   0  0  0  0  0  0  0  0  0  0  0  0
    4.5981   -1.6830    0.0000 C   0  0  0  0  0  0  0  0  0  0  0  0
    4.5981    3.3170    0.0000 C   0  0  0  0  0  0  0  0  0  0  0  0
    2.8660   -3.6830    0.0000 C   0  0  0  0  0  0  0  0  0  0  0  0
    5.4641    1.8170    0.0000 C   0  0  0  0  0  0  0  0  0  0  0  0
    5.4641    3.8170    0.0000 C   0  0  0  0  0  0  0  0  0  0  0  0
    6.3301    3.3170    0.0000 C   0  0  0  0  0  0  0  0  0  0  0  0
    2.8660   -4.6830    0.0000 C   0  0  0  0  0  0  0  0  0  0  0  0
    7.1962    4.8170    0.0000 C   0  0  0  0  0  0  0  0  0  0  0  0
    8.0622    5.3170    0.0000 C   0  0  0  0  0  0  0  0  0  0  0  0
    2.0000   -6.1830    0.0000 C   0  0  0  0  0  0  0  0  0  0  0  0
    3.1951    2.1270    0.0000 H   0  0  0  0  0  0  0  0  0  0  0  0
    2.3291   -0.3730    0.0000 H   0  0  0  0  0  0  0  0  0  0  0  0
    5.1350   -0.3730    0.0000 H   0  0  0  0  0  0  0  0  0  0  0  0
    2.3291   -1.9930    0.0000 H   0  0  0  0  0  0  0  0  0  0  0  0
    5.1350   -1.9930    0.0000 H   0  0  0  0  0  0  0  0  0  0  0  0
    4.0611    3.6270    0.0000 H   0  0  0  0  0  0  0  0  0  0  0  0
    2.6540   -3.1004    0.0000 H   0  0  0  0  0  0  0  0  0  0  0  0
    2.2554   -3.7907    0.0000 H   0  0  0  0  0  0  0  0  0  0  0  0
    5.4641    1.1970    0.0000 H   0  0  0  0  0  0  0  0  0  0  0  0
    5.4641    4.4370    0.0000 H   0  0  0  0  0  0  0  0  0  0  0  0
    3.0781   -5.2656    0.0000 H   0  0  0  0  0  0  0  0  0  0  0  0
    3.4766   -4.5754    0.0000 H   0  0  0  0  0  0  0  0  0  0  0  0
    6.9841    5.3996    0.0000 H   0  0  0  0  0  0  0  0  0  0  0  0
    6.5856    4.7093    0.0000 H   0  0  0  0  0  0  0  0  0  0  0  0
    1.3800   -6.1830    0.0000 H   0  0  0  0  0  0  0  0  0  0  0  0
    2.0000   -6.8030    0.0000 H   0  0  0  0  0  0  0  0  0  0  0  0
    2.6200   -6.1830    0.0000 H   0  0  0  0  0  0  0  0  0  0  0  0
  1  6  2  0  0  0  0
  1  7  2  0  0  0  0
  1 10  1  0  0  0  0
  1 12  1  0  0  0  0
  2 26  1  0  0  0  0
  3 26  1  0  0  0  0
  4 26  1  0  0  0  0
  5 15  1  0  0  0  0
  5 20  1  0  0  0  0
  8 23  1  0  0  0  0
  8 25  1  0  0  0  0
  9 24  1  0  0  0  0
  9 27  1  0  0  0  0
 10 16  1  0  0  0  0
 10 28  1  0  0  0  0
 11 21  1  0  0  0  0
 11 23  2  0  0  0  0
 12 13  2  0  0  0  0
 12 14  1  0  0  0  0
 13 17  1  0  0  0  0
 13 29  1  0  0  0  0
 14 18  2  0  0  0  0
 14 30  1  0  0  0  0
 15 17  2  0  0  0  0
 15 18  1  0  0  0  0
 16 19  1  0  0  0  0
 16 21  2  0  0  0  0
 17 31  1  0  0  0  0
 18 32  1  0  0  0  0
 19 22  2  0  0  0  0
 19 33  1  0  0  0  0
 20 24  1  0  0  0  0
 20 34  1  0  0  0  0
 20 35  1  0  0  0  0
 21 36  1  0  0  0  0
 22 23  1  0  0  0  0
 22 37  1  0  0  0  0
 24 38  1  0  0  0  0
 24 39  1  0  0  0  0
 25 26  1  0  0  0  0
 25 40  1  0  0  0  0
 25 41  1  0  0  0  0
 27 42  1  0  0  0  0
 27 43  1  0  0  0  0
 27 44  1  0  0  0  0
M  END
> <PUBCHEM_COMPOUND_CID>
55820644

> <PUBCHEM_COMPOUND_CANONICALIZED>
1

> <PUBCHEM_CACTVS_COMPLEXITY>
533

> <PUBCHEM_CACTVS_HBOND_ACCEPTOR>
10

> <PUBCHEM_CACTVS_HBOND_DONOR>
1

> <PUBCHEM_CACTVS_ROTATABLE_BOND>
9

> <PUBCHEM_CACTVS_SUBSKEYS>
AAADceB7OYBAAAAAAAAAAAAAAAAAAAAAAAA8QAAAAAAAAAABwAAAHwQQQAAACAzh0hY+x5JIFAKgADRnRHDCiDAxMiAI2Dg+fJgNZuLEsZueOCjk0BHK6AewUAAAAIAAAAAAAAABAAAAAAAAAAAAAAAAAA==

> <PUBCHEM_IUPAC_OPENEYE_NAME>
4-(2-methoxyethoxy)-N-[6-(2,2,2-trifluoroethoxy)-3-pyridyl]benzenesulfonamide

> <PUBCHEM_IUPAC_CAS_NAME>
4-(2-methoxyethoxy)-N-[6-(2,2,2-trifluoroethoxy)-3-pyridinyl]benzenesulfonamide

> <PUBCHEM_IUPAC_NAME>
4-(2-methoxyethoxy)-N-[6-(2,2,2-trifluoroethoxy)pyridin-3-yl]benzenesulfonamide

> <PUBCHEM_IUPAC_SYSTEMATIC_NAME>
4-(2-methoxyethoxy)-N-[6-[2,2,2-tris(fluoranyl)ethoxy]pyridin-3-yl]benzenesulfonamide

> <PUBCHEM_IUPAC_TRADITIONAL_NAME>
4-(2-methoxyethoxy)-N-[6-(2,2,2-trifluoroethoxy)-3-pyridyl]benzenesulfonamide

> <PUBCHEM_IUPAC_INCHI>
InChI=1S/C16H17F3N2O5S/c1-24-8-9-25-13-3-5-14(6-4-13)27(22,23)21-12-2-7-15(20-10-12)26-11-16(17,18)19/h2-7,10,21H,8-9,11H2,1H3

> <PUBCHEM_IUPAC_INCHIKEY>
FLWXDITXLQLOFH-UHFFFAOYSA-N

> <PUBCHEM_XLOGP3>
3.2

> <PUBCHEM_EXACT_MASS>
406.081027

> <PUBCHEM_MOLECULAR_FORMULA>
C16H17F3N2O5S

> <PUBCHEM_MOLECULAR_WEIGHT>
406.37679

> <PUBCHEM_OPENEYE_CAN_SMILES>
COCCOC1=CC=C(C=C1)S(=O)(=O)NC2=CN=C(C=C2)OCC(F)(F)F

> <PUBCHEM_OPENEYE_ISO_SMILES>
COCCOC1=CC=C(C=C1)S(=O)(=O)NC2=CN=C(C=C2)OCC(F)(F)F

> <PUBCHEM_CACTVS_TPSA>
95.1

> <PUBCHEM_MONOISOTOPIC_WEIGHT>
406.081027

> <PUBCHEM_TOTAL_CHARGE>
0

> <PUBCHEM_HEAVY_ATOM_COUNT>
27

> <PUBCHEM_ATOM_DEF_STEREO_COUNT>
0

> <PUBCHEM_ATOM_UDEF_STEREO_COUNT>
0

> <PUBCHEM_BOND_DEF_STEREO_COUNT>
0

> <PUBCHEM_BOND_UDEF_STEREO_COUNT>
0

> <PUBCHEM_ISOTOPIC_ATOM_COUNT>
0

> <PUBCHEM_COMPONENT_COUNT>
1

> <PUBCHEM_CACTVS_TAUTO_COUNT>
1

> <PUBCHEM_COORDINATE_TYPE>
1
5
255

> <PUBCHEM_BONDANNOTATIONS>
11  21  8
11  23  8
12  13  8
12  14  8
13  17  8
14  18  8
15  17  8
15  18  8
16  19  8
16  21  8
19  22  8
22  23  8

$$$$
