34363932
  -OEChem-11301217452D

 31 31  0     0  0  0  0  0  0999 V2000
    4.5981    4.2500    0.0000 F   0  0  0  0  0  0  0  0  0  0  0  0
    5.5981    3.2500    0.0000 F   0  0  0  0  0  0  0  0  0  0  0  0
    3.5981    3.2500    0.0000 F   0  0  0  0  0  0  0  0  0  0  0  0
    2.0000   -0.2500    0.0000 F   0  0  0  0  0  0  0  0  0  0  0  0
    3.3660   -0.6160    0.0000 F   0  0  0  0  0  0  0  0  0  0  0  0
    2.3660    1.1160    0.0000 F   0  0  0  0  0  0  0  0  0  0  0  0
    7.1962   -2.2500    0.0000 O   0  0  0  0  0  0  0  0  0  0  0  0
    5.4641   -1.2500    0.0000 O   0  0  0  0  0  0  0  0  0  0  0  0
    8.9282   -4.2500    0.0000 O   0  5  0  0  0  0  0  0  0  0  0  0
    7.1962   -4.2500    0.0000 O   0  0  0  0  0  0  0  0  0  0  0  0
    6.3301    0.2500    0.0000 N   0  0  0  0  0  0  0  0  0  0  0  0
    5.4641    0.7500    0.0000 C   0  0  0  0  0  0  0  0  0  0  0  0
    4.5981    2.2500    0.0000 C   0  0  0  0  0  0  0  0  0  0  0  0
    3.7320    0.7500    0.0000 C   0  0  0  0  0  0  0  0  0  0  0  0
    4.5981    0.2500    0.0000 C   0  0  0  0  0  0  0  0  0  0  0  0
    5.4641    1.7500    0.0000 C   0  0  0  0  0  0  0  0  0  0  0  0
    3.7320    1.7500    0.0000 C   0  0  0  0  0  0  0  0  0  0  0  0
    4.5981    3.2500    0.0000 C   0  0  0  0  0  0  0  0  0  0  0  0
    2.8660    0.2500    0.0000 C   0  0  0  0  0  0  0  0  0  0  0  0
    6.3301   -0.7500    0.0000 C   0  0  0  0  0  0  0  0  0  0  0  0
    7.1962   -1.2500    0.0000 C   0  0  0  0  0  0  0  0  0  0  0  0
    8.0622   -2.7500    0.0000 C   0  0  0  0  0  0  0  0  0  0  0  0
    8.0622   -3.7500    0.0000 C   0  0  0  0  0  0  0  0  0  0  0  0
    4.5981   -0.3700    0.0000 H   0  0  0  0  0  0  0  0  0  0  0  0
    6.0010    2.0600    0.0000 H   0  0  0  0  0  0  0  0  0  0  0  0
    3.1951    2.0600    0.0000 H   0  0  0  0  0  0  0  0  0  0  0  0
    6.8671    0.5600    0.0000 H   0  0  0  0  0  0  0  0  0  0  0  0
    7.8067   -1.3577    0.0000 H   0  0  0  0  0  0  0  0  0  0  0  0
    7.4082   -0.6674    0.0000 H   0  0  0  0  0  0  0  0  0  0  0  0
    8.6728   -2.8577    0.0000 H   0  0  0  0  0  0  0  0  0  0  0  0
    8.2742   -2.1674    0.0000 H   0  0  0  0  0  0  0  0  0  0  0  0
  1 18  1  0  0  0  0
  2 18  1  0  0  0  0
  3 18  1  0  0  0  0
  4 19  1  0  0  0  0
  5 19  1  0  0  0  0
  6 19  1  0  0  0  0
  7 21  1  0  0  0  0
  7 22  1  0  0  0  0
  8 20  2  0  0  0  0
  9 23  1  0  0  0  0
 10 23  2  0  0  0  0
 11 12  1  0  0  0  0
 11 20  1  0  0  0  0
 11 27  1  0  0  0  0
 12 15  2  0  0  0  0
 12 16  1  0  0  0  0
 13 16  2  0  0  0  0
 13 17  1  0  0  0  0
 13 18  1  0  0  0  0
 14 15  1  0  0  0  0
 14 17  2  0  0  0  0
 14 19  1  0  0  0  0
 15 24  1  0  0  0  0
 16 25  1  0  0  0  0
 17 26  1  0  0  0  0
 20 21  1  0  0  0  0
 21 28  1  0  0  0  0
 21 29  1  0  0  0  0
 22 23  1  0  0  0  0
 22 30  1  0  0  0  0
 22 31  1  0  0  0  0
M  CHG  1   9  -1
M  END
> <PUBCHEM_COMPOUND_CID>
34363932

> <PUBCHEM_COMPOUND_CANONICALIZED>
1

> <PUBCHEM_CACTVS_COMPLEXITY>
409

> <PUBCHEM_CACTVS_HBOND_ACCEPTOR>
10

> <PUBCHEM_CACTVS_HBOND_DONOR>
1

> <PUBCHEM_CACTVS_ROTATABLE_BOND>
4

> <PUBCHEM_CACTVS_SUBSKEYS>
AAADccByOcAAAAAAAAAAAAAAAAAAAAAAAAAwAAAAAAAAAAABAAAAHwAQAAAADAihmBIwyILABACIAiXSWAKCAAAhAgAAiABAZIgLICLAkZWHIAhglADayAcQgEAOAAACQAAAAAAAAASAAAAAAAAAAAAAAA==

> <PUBCHEM_IUPAC_OPENEYE_NAME>
2-[2-[3,5-bis(trifluoromethyl)anilino]-2-oxo-ethoxy]acetate

> <PUBCHEM_IUPAC_CAS_NAME>
2-[2-[3,5-bis(trifluoromethyl)anilino]-2-oxoethoxy]acetate

> <PUBCHEM_IUPAC_NAME>
2-[2-[3,5-bis(trifluoromethyl)anilino]-2-oxoethoxy]acetate

> <PUBCHEM_IUPAC_SYSTEMATIC_NAME>
2-[2-[[3,5-bis(trifluoromethyl)phenyl]amino]-2-oxidanylidene-ethoxy]ethanoate

> <PUBCHEM_IUPAC_TRADITIONAL_NAME>
2-[2-[3,5-bis(trifluoromethyl)anilino]-2-keto-ethoxy]acetate

> <PUBCHEM_IUPAC_INCHI>
InChI=1S/C12H9F6NO4/c13-11(14,15)6-1-7(12(16,17)18)3-8(2-6)19-9(20)4-23-5-10(21)22/h1-3H,4-5H2,(H,19,20)(H,21,22)/p-1

> <PUBCHEM_IUPAC_INCHIKEY>
HPEBGAMIDSNIGQ-UHFFFAOYSA-M

> <PUBCHEM_XLOGP3>
3.8

> <PUBCHEM_EXACT_MASS>
344.035752

> <PUBCHEM_MOLECULAR_FORMULA>
C12H8F6NO4-

> <PUBCHEM_MOLECULAR_WEIGHT>
344.186639

> <PUBCHEM_OPENEYE_CAN_SMILES>
C1=C(C=C(C=C1C(F)(F)F)NC(=O)COCC(=O)[O-])C(F)(F)F

> <PUBCHEM_OPENEYE_ISO_SMILES>
C1=C(C=C(C=C1C(F)(F)F)NC(=O)COCC(=O)[O-])C(F)(F)F

> <PUBCHEM_CACTVS_TPSA>
78.5

> <PUBCHEM_MONOISOTOPIC_WEIGHT>
344.035752

> <PUBCHEM_TOTAL_CHARGE>
-1

> <PUBCHEM_HEAVY_ATOM_COUNT>
23

> <PUBCHEM_ATOM_DEF_STEREO_COUNT>
0

> <PUBCHEM_ATOM_UDEF_STEREO_COUNT>
0

> <PUBCHEM_BOND_DEF_STEREO_COUNT>
0

> <PUBCHEM_BOND_UDEF_STEREO_COUNT>
0

> <PUBCHEM_ISOTOPIC_ATOM_COUNT>
0

> <PUBCHEM_COMPONENT_COUNT>
1

> <PUBCHEM_CACTVS_TAUTO_COUNT>
3

> <PUBCHEM_COORDINATE_TYPE>
1
5
255

> <PUBCHEM_BONDANNOTATIONS>
12  15  8
12  16  8
13  16  8
13  17  8
14  15  8
14  17  8

$$$$
34365090
  -OEChem-11301217452D

 24 24  0     1  0  0  0  0  0999 V2000
    2.5016    2.0944    0.0000 N   0  3  0  0  0  0  0  0  0  0  0  0
    2.9614   -1.3882    0.0000 N   0  0  0  0  0  0  0  0  0  0  0  0
    3.7704   -1.9760    0.0000 N   0  0  0  0  0  0  0  0  0  0  0  0
    3.0894    1.2854    0.0000 C   0  0  1  0  0  0  0  0  0  0  0  0
    2.6826    0.3719    0.0000 C   0  0  0  0  0  0  0  0  0  0  0  0
    3.2704   -0.4372    0.0000 C   0  0  0  0  0  0  0  0  0  0  0  0
    4.0839    1.3899    0.0000 C   0  0  0  0  0  0  0  0  0  0  0  0
    4.2704   -0.4372    0.0000 C   0  0  0  0  0  0  0  0  0  0  0  0
    4.5794   -1.3882    0.0000 C   0  0  0  0  0  0  0  0  0  0  0  0
    5.5305   -1.6972    0.0000 C   0  0  0  0  0  0  0  0  0  0  0  0
    2.4728    1.2206    0.0000 H   0  0  0  0  0  0  0  0  0  0  0  0
    2.1686    0.7186    0.0000 H   0  0  0  0  0  0  0  0  0  0  0  0
    2.2520   -0.0741    0.0000 H   0  0  0  0  0  0  0  0  0  0  0  0
    2.1372    2.5960    0.0000 H   0  0  0  0  0  0  0  0  0  0  0  0
    3.0032    2.4588    0.0000 H   0  0  0  0  0  0  0  0  0  0  0  0
    2.0000    1.7300    0.0000 H   0  0  0  0  0  0  0  0  0  0  0  0
    4.1487    0.7733    0.0000 H   0  0  0  0  0  0  0  0  0  0  0  0
    4.7005    1.4547    0.0000 H   0  0  0  0  0  0  0  0  0  0  0  0
    4.0191    2.0065    0.0000 H   0  0  0  0  0  0  0  0  0  0  0  0
    4.6348    0.0644    0.0000 H   0  0  0  0  0  0  0  0  0  0  0  0
    3.7704   -2.5960    0.0000 H   0  0  0  0  0  0  0  0  0  0  0  0
    5.3389   -2.2869    0.0000 H   0  0  0  0  0  0  0  0  0  0  0  0
    6.1202   -1.8888    0.0000 H   0  0  0  0  0  0  0  0  0  0  0  0
    5.7221   -1.1076    0.0000 H   0  0  0  0  0  0  0  0  0  0  0  0
  4  1  1  6  0  0  0
  1 14  1  0  0  0  0
  1 15  1  0  0  0  0
  1 16  1  0  0  0  0
  2  3  1  0  0  0  0
  2  6  2  0  0  0  0
  3  9  1  0  0  0  0
  3 21  1  0  0  0  0
  4  5  1  0  0  0  0
  4  7  1  0  0  0  0
  4 11  1  0  0  0  0
  5  6  1  0  0  0  0
  5 12  1  0  0  0  0
  5 13  1  0  0  0  0
  6  8  1  0  0  0  0
  7 17  1  0  0  0  0
  7 18  1  0  0  0  0
  7 19  1  0  0  0  0
  8  9  2  0  0  0  0
  8 20  1  0  0  0  0
  9 10  1  0  0  0  0
 10 22  1  0  0  0  0
 10 23  1  0  0  0  0
 10 24  1  0  0  0  0
M  CHG  1   1   1
M  END
> <PUBCHEM_COMPOUND_CID>
34365090

> <PUBCHEM_COMPOUND_CANONICALIZED>
1

> <PUBCHEM_CACTVS_COMPLEXITY>
105

> <PUBCHEM_CACTVS_HBOND_ACCEPTOR>
1

> <PUBCHEM_CACTVS_HBOND_DONOR>
2

> <PUBCHEM_CACTVS_ROTATABLE_BOND>
2

> <PUBCHEM_CACTVS_SUBSKEYS>
AAADccBjAAAAAAAAAAAAAAAAAAAAAWAAAAAAAAAAAAAAAAABgAAAHAAYAAAACCjBFgQygJBjAACiASRiQACQBAAgAgAQOaAwZBgAIAIA0dGAhABgmAAISAMQgAAAAAAAAAAAAAAAAAAAAAAAAAAAAAAAAA==

> <PUBCHEM_IUPAC_OPENEYE_NAME>
[(1R)-1-methyl-2-(5-methyl-1H-pyrazol-3-yl)ethyl]ammonium

> <PUBCHEM_IUPAC_CAS_NAME>
[(2R)-1-(5-methyl-1H-pyrazol-3-yl)propan-2-yl]ammonium

> <PUBCHEM_IUPAC_NAME>
[(2R)-1-(5-methyl-1H-pyrazol-3-yl)propan-2-yl]azanium

> <PUBCHEM_IUPAC_SYSTEMATIC_NAME>
[(2R)-1-(5-methyl-1H-pyrazol-3-yl)propan-2-yl]azanium

> <PUBCHEM_IUPAC_TRADITIONAL_NAME>
[(1R)-1-methyl-2-(5-methyl-1H-pyrazol-3-yl)ethyl]ammonium

> <PUBCHEM_IUPAC_INCHI>
InChI=1S/C7H13N3/c1-5(8)3-7-4-6(2)9-10-7/h4-5H,3,8H2,1-2H3,(H,9,10)/p+1/t5-/m1/s1

> <PUBCHEM_IUPAC_INCHIKEY>
OHGJHBXVKFERPR-RXMQYKEDSA-O

> <PUBCHEM_XLOGP3>
0.4

> <PUBCHEM_EXACT_MASS>
140.118772

> <PUBCHEM_MOLECULAR_FORMULA>
C7H14N3+

> <PUBCHEM_MOLECULAR_WEIGHT>
140.20616

> <PUBCHEM_OPENEYE_CAN_SMILES>
CC1=CC(=NN1)CC(C)[NH3+]

> <PUBCHEM_OPENEYE_ISO_SMILES>
CC1=CC(=NN1)C[C@@H](C)[NH3+]

> <PUBCHEM_CACTVS_TPSA>
56.3

> <PUBCHEM_MONOISOTOPIC_WEIGHT>
140.118772

> <PUBCHEM_TOTAL_CHARGE>
1

> <PUBCHEM_HEAVY_ATOM_COUNT>
10

> <PUBCHEM_ATOM_DEF_STEREO_COUNT>
1

> <PUBCHEM_ATOM_UDEF_STEREO_COUNT>
0

> <PUBCHEM_BOND_DEF_STEREO_COUNT>
0

> <PUBCHEM_BOND_UDEF_STEREO_COUNT>
0

> <PUBCHEM_ISOTOPIC_ATOM_COUNT>
0

> <PUBCHEM_COMPONENT_COUNT>
1

> <PUBCHEM_CACTVS_TAUTO_COUNT>
2

> <PUBCHEM_COORDINATE_TYPE>
1
5
255

> <PUBCHEM_BONDANNOTATIONS>
4  1  6
2  3  8
2  6  8
3  9  8
6  8  8
8  9  8

$$$$
34365091
  -OEChem-11301217452D

 24 24  0     1  0  0  0  0  0999 V2000
    2.5016    2.0944    0.0000 N   0  3  0  0  0  0  0  0  0  0  0  0
    2.9614   -1.3882    0.0000 N   0  0  0  0  0  0  0  0  0  0  0  0
    3.7704   -1.9760    0.0000 N   0  0  0  0  0  0  0  0  0  0  0  0
    3.0894    1.2854    0.0000 C   0  0  2  0  0  0  0  0  0  0  0  0
    2.6826    0.3719    0.0000 C   0  0  0  0  0  0  0  0  0  0  0  0
    3.2704   -0.4372    0.0000 C   0  0  0  0  0  0  0  0  0  0  0  0
    4.0839    1.3899    0.0000 C   0  0  0  0  0  0  0  0  0  0  0  0
    4.2704   -0.4372    0.0000 C   0  0  0  0  0  0  0  0  0  0  0  0
    4.5794   -1.3882    0.0000 C   0  0  0  0  0  0  0  0  0  0  0  0
    5.5305   -1.6972    0.0000 C   0  0  0  0  0  0  0  0  0  0  0  0
    2.4728    1.2206    0.0000 H   0  0  0  0  0  0  0  0  0  0  0  0
    2.1686    0.7186    0.0000 H   0  0  0  0  0  0  0  0  0  0  0  0
    2.2520   -0.0741    0.0000 H   0  0  0  0  0  0  0  0  0  0  0  0
    2.1372    2.5960    0.0000 H   0  0  0  0  0  0  0  0  0  0  0  0
    3.0032    2.4588    0.0000 H   0  0  0  0  0  0  0  0  0  0  0  0
    2.0000    1.7300    0.0000 H   0  0  0  0  0  0  0  0  0  0  0  0
    4.1487    0.7733    0.0000 H   0  0  0  0  0  0  0  0  0  0  0  0
    4.7005    1.4547    0.0000 H   0  0  0  0  0  0  0  0  0  0  0  0
    4.0191    2.0065    0.0000 H   0  0  0  0  0  0  0  0  0  0  0  0
    4.6348    0.0644    0.0000 H   0  0  0  0  0  0  0  0  0  0  0  0
    3.7704   -2.5960    0.0000 H   0  0  0  0  0  0  0  0  0  0  0  0
    5.3389   -2.2869    0.0000 H   0  0  0  0  0  0  0  0  0  0  0  0
    6.1202   -1.8888    0.0000 H   0  0  0  0  0  0  0  0  0  0  0  0
    5.7221   -1.1076    0.0000 H   0  0  0  0  0  0  0  0  0  0  0  0
  4  1  1  1  0  0  0
  1 14  1  0  0  0  0
  1 15  1  0  0  0  0
  1 16  1  0  0  0  0
  2  3  1  0  0  0  0
  2  6  2  0  0  0  0
  3  9  1  0  0  0  0
  3 21  1  0  0  0  0
  4  5  1  0  0  0  0
  4  7  1  0  0  0  0
  4 11  1  0  0  0  0
  5  6  1  0  0  0  0
  5 12  1  0  0  0  0
  5 13  1  0  0  0  0
  6  8  1  0  0  0  0
  7 17  1  0  0  0  0
  7 18  1  0  0  0  0
  7 19  1  0  0  0  0
  8  9  2  0  0  0  0
  8 20  1  0  0  0  0
  9 10  1  0  0  0  0
 10 22  1  0  0  0  0
 10 23  1  0  0  0  0
 10 24  1  0  0  0  0
M  CHG  1   1   1
M  END
> <PUBCHEM_COMPOUND_CID>
34365091

> <PUBCHEM_COMPOUND_CANONICALIZED>
1

> <PUBCHEM_CACTVS_COMPLEXITY>
105

> <PUBCHEM_CACTVS_HBOND_ACCEPTOR>
1

> <PUBCHEM_CACTVS_HBOND_DONOR>
2

> <PUBCHEM_CACTVS_ROTATABLE_BOND>
2

> <PUBCHEM_CACTVS_SUBSKEYS>
AAADccBjAAAAAAAAAAAAAAAAAAAAAWAAAAAAAAAAAAAAAAABgAAAHAAYAAAACCjBFgQygJBjAACiASRiQACQBAAgAgAQOaAwZBgAIAIA0dGAhABgmAAISAMQgAAAAAAAAAAAAAAAAAAAAAAAAAAAAAAAAA==

> <PUBCHEM_IUPAC_OPENEYE_NAME>
[(1S)-1-methyl-2-(5-methyl-1H-pyrazol-3-yl)ethyl]ammonium

> <PUBCHEM_IUPAC_CAS_NAME>
[(2S)-1-(5-methyl-1H-pyrazol-3-yl)propan-2-yl]ammonium

> <PUBCHEM_IUPAC_NAME>
[(2S)-1-(5-methyl-1H-pyrazol-3-yl)propan-2-yl]azanium

> <PUBCHEM_IUPAC_SYSTEMATIC_NAME>
[(2S)-1-(5-methyl-1H-pyrazol-3-yl)propan-2-yl]azanium

> <PUBCHEM_IUPAC_TRADITIONAL_NAME>
[(1S)-1-methyl-2-(5-methyl-1H-pyrazol-3-yl)ethyl]ammonium

> <PUBCHEM_IUPAC_INCHI>
InChI=1S/C7H13N3/c1-5(8)3-7-4-6(2)9-10-7/h4-5H,3,8H2,1-2H3,(H,9,10)/p+1/t5-/m0/s1

> <PUBCHEM_IUPAC_INCHIKEY>
OHGJHBXVKFERPR-YFKPBYRVSA-O

> <PUBCHEM_XLOGP3>
0.4

> <PUBCHEM_EXACT_MASS>
140.118772

> <PUBCHEM_MOLECULAR_FORMULA>
C7H14N3+

> <PUBCHEM_MOLECULAR_WEIGHT>
140.20616

> <PUBCHEM_OPENEYE_CAN_SMILES>
CC1=CC(=NN1)CC(C)[NH3+]

> <PUBCHEM_OPENEYE_ISO_SMILES>
CC1=CC(=NN1)C[C@H](C)[NH3+]

> <PUBCHEM_CACTVS_TPSA>
56.3

> <PUBCHEM_MONOISOTOPIC_WEIGHT>
140.118772

> <PUBCHEM_TOTAL_CHARGE>
1

> <PUBCHEM_HEAVY_ATOM_COUNT>
10

> <PUBCHEM_ATOM_DEF_STEREO_COUNT>
1

> <PUBCHEM_ATOM_UDEF_STEREO_COUNT>
0

> <PUBCHEM_BOND_DEF_STEREO_COUNT>
0

> <PUBCHEM_BOND_UDEF_STEREO_COUNT>
0

> <PUBCHEM_ISOTOPIC_ATOM_COUNT>
0

> <PUBCHEM_COMPONENT_COUNT>
1

> <PUBCHEM_CACTVS_TAUTO_COUNT>
2

> <PUBCHEM_COORDINATE_TYPE>
1
5
255

> <PUBCHEM_BONDANNOTATIONS>
4  1  5
2  3  8
2  6  8
3  9  8
6  8  8
8  9  8

$$$$
34365223
  -OEChem-11301217452D

 35 36  0     1  0  0  0  0  0999 V2000
    2.0000   -1.3938    0.0000 O   0  0  0  0  0  0  0  0  0  0  0  0
    3.6730   -1.8421    0.0000 N   0  0  0  0  0  0  0  0  0  0  0  0
    5.6639    0.1238    0.0000 C   0  0  1  0  0  0  0  0  0  0  0  0
    5.1861    2.0723    0.0000 C   0  0  0  0  0  0  0  0  0  0  0  0
    5.9227    1.0897    0.0000 C   0  0  2  0  0  0  0  0  0  0  0  0
    3.9318   -0.8762    0.0000 C   0  0  2  0  0  0  0  0  0  0  0  0
    7.4958   -0.6350    0.0000 C   0  0  0  0  0  0  0  0  0  0  0  0
    3.4318   -0.0102    0.0000 C   0  0  0  0  0  0  0  0  0  0  0  0
    7.7547    0.3309    0.0000 C   0  0  0  0  0  0  0  0  0  0  0  0
    5.4051   -0.8421    0.0000 C   0  0  0  0  0  0  0  0  0  0  0  0
    5.2906    3.0669    0.0000 C   0  0  0  0  0  0  0  0  0  0  0  0
    4.2726    2.4791    0.0000 C   0  0  0  0  0  0  0  0  0  0  0  0
    2.7071   -2.1009    0.0000 C   0  0  0  0  0  0  0  0  0  0  0  0
    2.4483   -3.0669    0.0000 C   0  0  0  0  0  0  0  0  0  0  0  0
    6.1427    1.9108    0.0000 H   0  0  0  0  0  0  0  0  0  0  0  0
    4.4237   -1.2536    0.0000 H   0  0  0  0  0  0  0  0  0  0  0  0
    7.2838   -1.2176    0.0000 H   0  0  0  0  0  0  0  0  0  0  0  0
    8.0872   -0.8215    0.0000 H   0  0  0  0  0  0  0  0  0  0  0  0
    3.1612    0.5476    0.0000 H   0  0  0  0  0  0  0  0  0  0  0  0
    2.8841   -0.3007    0.0000 H   0  0  0  0  0  0  0  0  0  0  0  0
    8.3460    0.1445    0.0000 H   0  0  0  0  0  0  0  0  0  0  0  0
    7.9667    0.9135    0.0000 H   0  0  0  0  0  0  0  0  0  0  0  0
    4.8062   -0.6817    0.0000 H   0  0  0  0  0  0  0  0  0  0  0  0
    5.2446   -1.4410    0.0000 H   0  0  0  0  0  0  0  0  0  0  0  0
    6.0040   -1.0026    0.0000 H   0  0  0  0  0  0  0  0  0  0  0  0
    5.9072    3.0021    0.0000 H   0  0  0  0  0  0  0  0  0  0  0  0
    5.3554    3.6835    0.0000 H   0  0  0  0  0  0  0  0  0  0  0  0
    4.6740    3.1317    0.0000 H   0  0  0  0  0  0  0  0  0  0  0  0
    4.5247    3.0455    0.0000 H   0  0  0  0  0  0  0  0  0  0  0  0
    3.7062    2.7313    0.0000 H   0  0  0  0  0  0  0  0  0  0  0  0
    4.0204    1.9127    0.0000 H   0  0  0  0  0  0  0  0  0  0  0  0
    4.1114   -2.2805    0.0000 H   0  0  0  0  0  0  0  0  0  0  0  0
    1.8494   -2.9064    0.0000 H   0  0  0  0  0  0  0  0  0  0  0  0
    2.2878   -3.6657    0.0000 H   0  0  0  0  0  0  0  0  0  0  0  0
    3.0472   -3.2273    0.0000 H   0  0  0  0  0  0  0  0  0  0  0  0
  1 13  2  0  0  0  0
  6  2  1  1  0  0  0
  2 13  1  0  0  0  0
  2 32  1  0  0  0  0
  3  4  1  0  0  0  0
  3  6  1  0  0  0  0
  3  7  1  0  0  0  0
  3 10  1  1  0  0  0
  4  5  1  0  0  0  0
  4 11  1  0  0  0  0
  4 12  1  0  0  0  0
  5  8  1  0  0  0  0
  5  9  1  0  0  0  0
  5 15  1  6  0  0  0
  6  8  1  0  0  0  0
  6 16  1  0  0  0  0
  7  9  1  0  0  0  0
  7 17  1  0  0  0  0
  7 18  1  0  0  0  0
  8 19  1  0  0  0  0
  8 20  1  0  0  0  0
  9 21  1  0  0  0  0
  9 22  1  0  0  0  0
 10 23  1  0  0  0  0
 10 24  1  0  0  0  0
 10 25  1  0  0  0  0
 11 26  1  0  0  0  0
 11 27  1  0  0  0  0
 11 28  1  0  0  0  0
 12 29  1  0  0  0  0
 12 30  1  0  0  0  0
 12 31  1  0  0  0  0
 13 14  1  0  0  0  0
 14 33  1  0  0  0  0
 14 34  1  0  0  0  0
 14 35  1  0  0  0  0
M  END
> <PUBCHEM_COMPOUND_CID>
34365223

> <PUBCHEM_COMPOUND_CANONICALIZED>
1

> <PUBCHEM_CACTVS_COMPLEXITY>
272

> <PUBCHEM_CACTVS_HBOND_ACCEPTOR>
1

> <PUBCHEM_CACTVS_HBOND_DONOR>
1

> <PUBCHEM_CACTVS_ROTATABLE_BOND>
1

> <PUBCHEM_CACTVS_SUBSKEYS>
AAADceByIAAAAAAAAAAAAAAAAAAAAYMAAAAwAAAAAAAAAAAAAAAAHgAQAAAADyjBgAQCAALAAAAIAAEQEAAAAAAAAAAAAIAIAAAAAAIAgAAEAAAAFgCAAAEQgMAPgAAAAAAAAACAAACAAAQAASAACQAAAA==

> <PUBCHEM_IUPAC_OPENEYE_NAME>
N-[(1S,2S,4S)-1,7,7-trimethylnorbornan-2-yl]acetamide

> <PUBCHEM_IUPAC_CAS_NAME>
N-[(1S,3S,4S)-4,7,7-trimethyl-3-bicyclo[2.2.1]heptanyl]acetamide

> <PUBCHEM_IUPAC_NAME>
N-[(1S,3S,4S)-4,7,7-trimethyl-3-bicyclo[2.2.1]heptanyl]acetamide

> <PUBCHEM_IUPAC_SYSTEMATIC_NAME>
N-[(1S,3S,4S)-4,7,7-trimethyl-3-bicyclo[2.2.1]heptanyl]ethanamide

> <PUBCHEM_IUPAC_TRADITIONAL_NAME>
N-[(1S,2S,4S)-1,7,7-trimethylnorbornan-2-yl]acetamide

> <PUBCHEM_IUPAC_INCHI>
InChI=1S/C12H21NO/c1-8(14)13-10-7-9-5-6-12(10,4)11(9,2)3/h9-10H,5-7H2,1-4H3,(H,13,14)/t9-,10-,12+/m0/s1

> <PUBCHEM_IUPAC_INCHIKEY>
PNZAEYAVGJMPAY-JBLDHEPKSA-N

> <PUBCHEM_XLOGP3>
2.7

> <PUBCHEM_EXACT_MASS>
195.162314

> <PUBCHEM_MOLECULAR_FORMULA>
C12H21NO

> <PUBCHEM_MOLECULAR_WEIGHT>
195.30124

> <PUBCHEM_OPENEYE_CAN_SMILES>
CC(=O)NC1CC2CCC1(C2(C)C)C

> <PUBCHEM_OPENEYE_ISO_SMILES>
CC(=O)N[C@H]1C[C@@H]2CC[C@]1(C2(C)C)C

> <PUBCHEM_CACTVS_TPSA>
29.1

> <PUBCHEM_MONOISOTOPIC_WEIGHT>
195.162314

> <PUBCHEM_TOTAL_CHARGE>
0

> <PUBCHEM_HEAVY_ATOM_COUNT>
14

> <PUBCHEM_ATOM_DEF_STEREO_COUNT>
3

> <PUBCHEM_ATOM_UDEF_STEREO_COUNT>
0

> <PUBCHEM_BOND_DEF_STEREO_COUNT>
0

> <PUBCHEM_BOND_UDEF_STEREO_COUNT>
0

> <PUBCHEM_ISOTOPIC_ATOM_COUNT>
0

> <PUBCHEM_COMPONENT_COUNT>
1

> <PUBCHEM_CACTVS_TAUTO_COUNT>
2

> <PUBCHEM_COORDINATE_TYPE>
1
5
255

> <PUBCHEM_BONDANNOTATIONS>
6  2  5
3  10  5
5  15  6

$$$$
