26975161
  -OEChem-11301217392D

 25 25  0     0  0  0  0  0  0999 V2000
    3.7320    0.7500    0.0000 N   0  3  0  0  0  0  0  0  0  0  0  0
    2.8660    0.2500    0.0000 C   0  0  0  0  0  0  0  0  0  0  0  0
    2.8660   -0.7500    0.0000 C   0  0  0  0  0  0  0  0  0  0  0  0
    4.5981    1.2500    0.0000 C   0  0  0  0  0  0  0  0  0  0  0  0
    2.0000   -1.2500    0.0000 C   0  0  0  0  0  0  0  0  0  0  0  0
    3.7320   -1.2500    0.0000 C   0  0  0  0  0  0  0  0  0  0  0  0
    4.5981    2.2500    0.0000 C   0  0  0  0  0  0  0  0  0  0  0  0
    2.0000   -2.2500    0.0000 C   0  0  0  0  0  0  0  0  0  0  0  0
    3.7320   -2.2500    0.0000 C   0  0  0  0  0  0  0  0  0  0  0  0
    2.8660   -2.7500    0.0000 C   0  0  0  0  0  0  0  0  0  0  0  0
    5.4641    2.7500    0.0000 C   0  0  0  0  0  0  0  0  0  0  0  0
    2.6540    0.8326    0.0000 H   0  0  0  0  0  0  0  0  0  0  0  0
    2.2554    0.1423    0.0000 H   0  0  0  0  0  0  0  0  0  0  0  0
    3.4220    1.2869    0.0000 H   0  0  0  0  0  0  0  0  0  0  0  0
    4.0420    0.2131    0.0000 H   0  0  0  0  0  0  0  0  0  0  0  0
    4.8101    0.6674    0.0000 H   0  0  0  0  0  0  0  0  0  0  0  0
    5.2087    1.3577    0.0000 H   0  0  0  0  0  0  0  0  0  0  0  0
    1.4631   -0.9400    0.0000 H   0  0  0  0  0  0  0  0  0  0  0  0
    4.2690   -0.9400    0.0000 H   0  0  0  0  0  0  0  0  0  0  0  0
    4.0611    2.5600    0.0000 H   0  0  0  0  0  0  0  0  0  0  0  0
    1.4631   -2.5600    0.0000 H   0  0  0  0  0  0  0  0  0  0  0  0
    4.2690   -2.5600    0.0000 H   0  0  0  0  0  0  0  0  0  0  0  0
    2.8660   -3.3700    0.0000 H   0  0  0  0  0  0  0  0  0  0  0  0
    6.0010    2.4400    0.0000 H   0  0  0  0  0  0  0  0  0  0  0  0
    5.4641    3.3700    0.0000 H   0  0  0  0  0  0  0  0  0  0  0  0
  1  2  1  0  0  0  0
  1  4  1  0  0  0  0
  1 14  1  0  0  0  0
  1 15  1  0  0  0  0
  2  3  1  0  0  0  0
  2 12  1  0  0  0  0
  2 13  1  0  0  0  0
  3  5  2  0  0  0  0
  3  6  1  0  0  0  0
  4  7  1  0  0  0  0
  4 16  1  0  0  0  0
  4 17  1  0  0  0  0
  5  8  1  0  0  0  0
  5 18  1  0  0  0  0
  6  9  2  0  0  0  0
  6 19  1  0  0  0  0
  7 11  2  0  0  0  0
  7 20  1  0  0  0  0
  8 10  2  0  0  0  0
  8 21  1  0  0  0  0
  9 10  1  0  0  0  0
  9 22  1  0  0  0  0
 10 23  1  0  0  0  0
 11 24  1  0  0  0  0
 11 25  1  0  0  0  0
M  CHG  1   1   1
M  END
> <PUBCHEM_COMPOUND_CID>
26975161

> <PUBCHEM_COMPOUND_CANONICALIZED>
1

> <PUBCHEM_CACTVS_COMPLEXITY>
103

> <PUBCHEM_CACTVS_HBOND_ACCEPTOR>
0

> <PUBCHEM_CACTVS_HBOND_DONOR>
1

> <PUBCHEM_CACTVS_ROTATABLE_BOND>
4

> <PUBCHEM_CACTVS_SUBSKEYS>
AAADccByAAAAAAAAAAAAAAAAAAAAAAAAAAAwAAAAAAAAAAABAAAAHAAQAAAADADBGAQwAILAAACAAiBCAACCAAAgAAAIiIAIBIgIICKAkRGEIAhgkACIiAcQgAAOAAAAAAAAAAAAAAAAAAAAAAAAAAAAAA==

> <PUBCHEM_IUPAC_OPENEYE_NAME>
allyl(benzyl)ammonium

> <PUBCHEM_IUPAC_CAS_NAME>
(phenylmethyl)-prop-2-enylammonium

> <PUBCHEM_IUPAC_NAME>
benzyl(prop-2-enyl)azanium

> <PUBCHEM_IUPAC_SYSTEMATIC_NAME>
(phenylmethyl)-prop-2-enyl-azanium

> <PUBCHEM_IUPAC_TRADITIONAL_NAME>
allyl(benzyl)ammonium

> <PUBCHEM_IUPAC_INCHI>
InChI=1S/C10H13N/c1-2-8-11-9-10-6-4-3-5-7-10/h2-7,11H,1,8-9H2/p+1

> <PUBCHEM_IUPAC_INCHIKEY>
RHUCQDQRNUUMKY-UHFFFAOYSA-O

> <PUBCHEM_XLOGP3>
2.2

> <PUBCHEM_EXACT_MASS>
148.112624

> <PUBCHEM_MOLECULAR_FORMULA>
C10H14N+

> <PUBCHEM_MOLECULAR_WEIGHT>
148.22486

> <PUBCHEM_OPENEYE_CAN_SMILES>
C=CC[NH2+]CC1=CC=CC=C1

> <PUBCHEM_OPENEYE_ISO_SMILES>
C=CC[NH2+]CC1=CC=CC=C1

> <PUBCHEM_CACTVS_TPSA>
16.6

> <PUBCHEM_MONOISOTOPIC_WEIGHT>
148.112624

> <PUBCHEM_TOTAL_CHARGE>
1

> <PUBCHEM_HEAVY_ATOM_COUNT>
11

> <PUBCHEM_ATOM_DEF_STEREO_COUNT>
0

> <PUBCHEM_ATOM_UDEF_STEREO_COUNT>
0

> <PUBCHEM_BOND_DEF_STEREO_COUNT>
0

> <PUBCHEM_BOND_UDEF_STEREO_COUNT>
0

> <PUBCHEM_ISOTOPIC_ATOM_COUNT>
0

> <PUBCHEM_COMPONENT_COUNT>
1

> <PUBCHEM_CACTVS_TAUTO_COUNT>
1

> <PUBCHEM_COORDINATE_TYPE>
1
5
255

> <PUBCHEM_BONDANNOTATIONS>
3  5  8
3  6  8
5  8  8
6  9  8
8  10  8
9  10  8

$$$$
26982425
  -OEChem-11301217392D

 50 52  0     0  0  0  0  0  0999 V2000
    6.3301   -1.5000    0.0000 S   0  0  0  0  0  0  0  0  0  0  0  0
    5.4641    2.0000    0.0000 S   0  0  0  0  0  0  0  0  0  0  0  0
    7.1962    5.0000    0.0000 F   0  0  0  0  0  0  0  0  0  0  0  0
    8.9282    2.0000    0.0000 F   0  0  0  0  0  0  0  0  0  0  0  0
    2.8660    0.5000    0.0000 O   0  0  0  0  0  0  0  0  0  0  0  0
    5.8301   -2.3660    0.0000 O   0  0  0  0  0  0  0  0  0  0  0  0
    6.8301   -0.6340    0.0000 O   0  0  0  0  0  0  0  0  0  0  0  0
    4.9641    2.8660    0.0000 O   0  0  0  0  0  0  0  0  0  0  0  0
    5.9641    1.1340    0.0000 O   0  0  0  0  0  0  0  0  0  0  0  0
    5.4641   -3.0000    0.0000 O   0  0  0  0  0  0  0  0  0  0  0  0
    4.5981    1.5000    0.0000 N   0  0  0  0  0  0  0  0  0  0  0  0
    7.1962   -2.0000    0.0000 N   0  0  0  0  0  0  0  0  0  0  0  0
    5.4641   -1.0000    0.0000 C   0  0  0  0  0  0  0  0  0  0  0  0
    4.5981    0.5000    0.0000 C   0  0  0  0  0  0  0  0  0  0  0  0
    5.4641    0.0000    0.0000 C   0  0  0  0  0  0  0  0  0  0  0  0
    3.7320    0.0000    0.0000 C   0  0  0  0  0  0  0  0  0  0  0  0
    4.5981   -1.5000    0.0000 C   0  0  0  0  0  0  0  0  0  0  0  0
    3.7320   -1.0000    0.0000 C   0  0  0  0  0  0  0  0  0  0  0  0
    6.3301    2.5000    0.0000 C   0  0  0  0  0  0  0  0  0  0  0  0
    7.1962   -3.0000    0.0000 C   0  0  0  0  0  0  0  0  0  0  0  0
    6.3301   -3.5000    0.0000 C   0  0  0  0  0  0  0  0  0  0  0  0
    7.1962    2.0000    0.0000 C   0  0  0  0  0  0  0  0  0  0  0  0
    6.3301    3.5000    0.0000 C   0  0  0  0  0  0  0  0  0  0  0  0
    8.0622   -3.5000    0.0000 C   0  0  0  0  0  0  0  0  0  0  0  0
    7.1962    4.0000    0.0000 C   0  0  0  0  0  0  0  0  0  0  0  0
    8.0622    2.5000    0.0000 C   0  0  0  0  0  0  0  0  0  0  0  0
    6.3301   -4.5000    0.0000 C   0  0  0  0  0  0  0  0  0  0  0  0
    8.0622   -4.5000    0.0000 C   0  0  0  0  0  0  0  0  0  0  0  0
    8.0622    3.5000    0.0000 C   0  0  0  0  0  0  0  0  0  0  0  0
    7.1962   -5.0000    0.0000 C   0  0  0  0  0  0  0  0  0  0  0  0
    2.0000    0.0000    0.0000 C   0  0  0  0  0  0  0  0  0  0  0  0
    4.5981   -3.5000    0.0000 C   0  0  0  0  0  0  0  0  0  0  0  0
    6.0010    0.3100    0.0000 H   0  0  0  0  0  0  0  0  0  0  0  0
    4.0611    1.8100    0.0000 H   0  0  0  0  0  0  0  0  0  0  0  0
    4.5981   -2.1200    0.0000 H   0  0  0  0  0  0  0  0  0  0  0  0
    7.7331   -1.6900    0.0000 H   0  0  0  0  0  0  0  0  0  0  0  0
    3.1951   -1.3100    0.0000 H   0  0  0  0  0  0  0  0  0  0  0  0
    7.1962    1.3800    0.0000 H   0  0  0  0  0  0  0  0  0  0  0  0
    5.7932    3.8100    0.0000 H   0  0  0  0  0  0  0  0  0  0  0  0
    8.5991   -3.1900    0.0000 H   0  0  0  0  0  0  0  0  0  0  0  0
    5.7932   -4.8100    0.0000 H   0  0  0  0  0  0  0  0  0  0  0  0
    8.5991   -4.8100    0.0000 H   0  0  0  0  0  0  0  0  0  0  0  0
    8.5991    3.8100    0.0000 H   0  0  0  0  0  0  0  0  0  0  0  0
    7.1962   -5.6200    0.0000 H   0  0  0  0  0  0  0  0  0  0  0  0
    1.6900    0.5369    0.0000 H   0  0  0  0  0  0  0  0  0  0  0  0
    1.4631   -0.3100    0.0000 H   0  0  0  0  0  0  0  0  0  0  0  0
    2.3100   -0.5369    0.0000 H   0  0  0  0  0  0  0  0  0  0  0  0
    4.2881   -2.9631    0.0000 H   0  0  0  0  0  0  0  0  0  0  0  0
    4.0611   -3.8100    0.0000 H   0  0  0  0  0  0  0  0  0  0  0  0
    4.9081   -4.0369    0.0000 H   0  0  0  0  0  0  0  0  0  0  0  0
  1  6  2  0  0  0  0
  1  7  2  0  0  0  0
  1 12  1  0  0  0  0
  1 13  1  0  0  0  0
  2  8  2  0  0  0  0
  2  9  2  0  0  0  0
  2 11  1  0  0  0  0
  2 19  1  0  0  0  0
  3 25  1  0  0  0  0
  4 26  1  0  0  0  0
  5 16  1  0  0  0  0
  5 31  1  0  0  0  0
 10 21  1  0  0  0  0
 10 32  1  0  0  0  0
 11 14  1  0  0  0  0
 11 34  1  0  0  0  0
 12 20  1  0  0  0  0
 12 36  1  0  0  0  0
 13 15  2  0  0  0  0
 13 17  1  0  0  0  0
 14 15  1  0  0  0  0
 14 16  2  0  0  0  0
 15 33  1  0  0  0  0
 16 18  1  0  0  0  0
 17 18  2  0  0  0  0
 17 35  1  0  0  0  0
 18 37  1  0  0  0  0
 19 22  2  0  0  0  0
 19 23  1  0  0  0  0
 20 21  1  0  0  0  0
 20 24  2  0  0  0  0
 21 27  2  0  0  0  0
 22 26  1  0  0  0  0
 22 38  1  0  0  0  0
 23 25  2  0  0  0  0
 23 39  1  0  0  0  0
 24 28  1  0  0  0  0
 24 40  1  0  0  0  0
 25 29  1  0  0  0  0
 26 29  2  0  0  0  0
 27 30  1  0  0  0  0
 27 41  1  0  0  0  0
 28 30  2  0  0  0  0
 28 42  1  0  0  0  0
 29 43  1  0  0  0  0
 30 44  1  0  0  0  0
 31 45  1  0  0  0  0
 31 46  1  0  0  0  0
 31 47  1  0  0  0  0
 32 48  1  0  0  0  0
 32 49  1  0  0  0  0
 32 50  1  0  0  0  0
M  END
> <PUBCHEM_COMPOUND_CID>
26982425

> <PUBCHEM_COMPOUND_CANONICALIZED>
1

> <PUBCHEM_CACTVS_COMPLEXITY>
807

> <PUBCHEM_CACTVS_HBOND_ACCEPTOR>
10

> <PUBCHEM_CACTVS_HBOND_DONOR>
2

> <PUBCHEM_CACTVS_ROTATABLE_BOND>
8

> <PUBCHEM_CACTVS_SUBSKEYS>
AAADceB7OYBgAAAAAAAAAAAAAAAAAAAAAAAwYMAAAAAAAAABUAAAHwQQQAAACAyB0Aoyx4BABAKAACRCQHDCCBAgIgAIiBgHbIgOJiKEsZuBMCRk0BEI6AeQQAAAAIAAACAAEAABAAAAQAAgAAAAAAAAAA==

> <PUBCHEM_IUPAC_OPENEYE_NAME>
3-[(3,5-difluorophenyl)sulfonylamino]-4-methoxy-N-(2-methoxyphenyl)benzenesulfonamide

> <PUBCHEM_IUPAC_CAS_NAME>
3-[(3,5-difluorophenyl)sulfonylamino]-4-methoxy-N-(2-methoxyphenyl)benzenesulfonamide

> <PUBCHEM_IUPAC_NAME>
3-[(3,5-difluorophenyl)sulfonylamino]-4-methoxy-N-(2-methoxyphenyl)benzenesulfonamide

> <PUBCHEM_IUPAC_SYSTEMATIC_NAME>
3-[[3,5-bis(fluoranyl)phenyl]sulfonylamino]-4-methoxy-N-(2-methoxyphenyl)benzenesulfonamide

> <PUBCHEM_IUPAC_TRADITIONAL_NAME>
3-[(3,5-difluorophenyl)sulfonylamino]-4-methoxy-N-(2-methoxyphenyl)benzenesulfonamide

> <PUBCHEM_IUPAC_INCHI>
InChI=1S/C20H18F2N2O6S2/c1-29-19-6-4-3-5-17(19)23-31(25,26)15-7-8-20(30-2)18(12-15)24-32(27,28)16-10-13(21)9-14(22)11-16/h3-12,23-24H,1-2H3

> <PUBCHEM_IUPAC_INCHIKEY>
IOPYUAXTYLEXBH-UHFFFAOYSA-N

> <PUBCHEM_XLOGP3>
2.9

> <PUBCHEM_EXACT_MASS>
484.057435

> <PUBCHEM_MOLECULAR_FORMULA>
C20H18F2N2O6S2

> <PUBCHEM_MOLECULAR_WEIGHT>
484.493526

> <PUBCHEM_OPENEYE_CAN_SMILES>
COC1=C(C=C(C=C1)S(=O)(=O)NC2=CC=CC=C2OC)NS(=O)(=O)C3=CC(=CC(=C3)F)F

> <PUBCHEM_OPENEYE_ISO_SMILES>
COC1=C(C=C(C=C1)S(=O)(=O)NC2=CC=CC=C2OC)NS(=O)(=O)C3=CC(=CC(=C3)F)F

> <PUBCHEM_CACTVS_TPSA>
128

> <PUBCHEM_MONOISOTOPIC_WEIGHT>
484.057435

> <PUBCHEM_TOTAL_CHARGE>
0

> <PUBCHEM_HEAVY_ATOM_COUNT>
32

> <PUBCHEM_ATOM_DEF_STEREO_COUNT>
0

> <PUBCHEM_ATOM_UDEF_STEREO_COUNT>
0

> <PUBCHEM_BOND_DEF_STEREO_COUNT>
0

> <PUBCHEM_BOND_UDEF_STEREO_COUNT>
0

> <PUBCHEM_ISOTOPIC_ATOM_COUNT>
0

> <PUBCHEM_COMPONENT_COUNT>
1

> <PUBCHEM_CACTVS_TAUTO_COUNT>
1

> <PUBCHEM_COORDINATE_TYPE>
1
5
255

> <PUBCHEM_BONDANNOTATIONS>
13  15  8
13  17  8
14  15  8
14  16  8
16  18  8
17  18  8
19  22  8
19  23  8
20  21  8
20  24  8
21  27  8
22  26  8
23  25  8
24  28  8
25  29  8
26  29  8
27  30  8
28  30  8

$$$$
26987859
  -OEChem-11301217392D

 39 40  0     0  0  0  0  0  0999 V2000
    3.0000   -0.5000    0.0000 S   0  0  0  0  0  0  0  0  0  0  0  0
    3.0000    2.5000    0.0000 N   0  3  0  0  0  0  0  0  0  0  0  0
    4.7320   -0.5000    0.0000 N   0  0  0  0  0  0  0  0  0  0  0  0
    4.7320   -1.5000    0.0000 C   0  0  0  0  0  0  0  0  0  0  0  0
    5.5981    0.0000    0.0000 C   0  0  0  0  0  0  0  0  0  0  0  0
    3.0000    1.5000    0.0000 C   0  0  0  0  0  0  0  0  0  0  0  0
    3.8660    0.0000    0.0000 C   0  0  0  0  0  0  0  0  0  0  0  0
    3.0000    3.5000    0.0000 C   0  0  0  0  0  0  0  0  0  0  0  0
    2.0000    2.5000    0.0000 C   0  0  0  0  0  0  0  0  0  0  0  0
    3.8660    1.0000    0.0000 C   0  0  0  0  0  0  0  0  0  0  0  0
    3.8660   -2.0000    0.0000 C   0  0  0  0  0  0  0  0  0  0  0  0
    6.4641   -0.5000    0.0000 C   0  0  0  0  0  0  0  0  0  0  0  0
    5.5981   -2.0000    0.0000 C   0  0  0  0  0  0  0  0  0  0  0  0
    5.5981    1.0000    0.0000 C   0  0  0  0  0  0  0  0  0  0  0  0
    3.8660   -3.0000    0.0000 C   0  0  0  0  0  0  0  0  0  0  0  0
    7.3301    0.0000    0.0000 C   0  0  0  0  0  0  0  0  0  0  0  0
    5.5981   -3.0000    0.0000 C   0  0  0  0  0  0  0  0  0  0  0  0
    6.4641    1.5000    0.0000 C   0  0  0  0  0  0  0  0  0  0  0  0
    4.7320   -3.5000    0.0000 C   0  0  0  0  0  0  0  0  0  0  0  0
    7.3301    1.0000    0.0000 C   0  0  0  0  0  0  0  0  0  0  0  0
    3.6200    2.5000    0.0000 H   0  0  0  0  0  0  0  0  0  0  0  0
    2.4631    1.1900    0.0000 H   0  0  0  0  0  0  0  0  0  0  0  0
    3.6200    3.5000    0.0000 H   0  0  0  0  0  0  0  0  0  0  0  0
    2.0000    3.1200    0.0000 H   0  0  0  0  0  0  0  0  0  0  0  0
    1.3800    2.5000    0.0000 H   0  0  0  0  0  0  0  0  0  0  0  0
    2.0000    1.8800    0.0000 H   0  0  0  0  0  0  0  0  0  0  0  0
    3.0000    4.1200    0.0000 H   0  0  0  0  0  0  0  0  0  0  0  0
    2.3800    3.5000    0.0000 H   0  0  0  0  0  0  0  0  0  0  0  0
    4.4030    1.3100    0.0000 H   0  0  0  0  0  0  0  0  0  0  0  0
    3.3291   -1.6900    0.0000 H   0  0  0  0  0  0  0  0  0  0  0  0
    6.4641   -1.1200    0.0000 H   0  0  0  0  0  0  0  0  0  0  0  0
    6.1350   -1.6900    0.0000 H   0  0  0  0  0  0  0  0  0  0  0  0
    5.0611    1.3100    0.0000 H   0  0  0  0  0  0  0  0  0  0  0  0
    3.3291   -3.3100    0.0000 H   0  0  0  0  0  0  0  0  0  0  0  0
    7.8671   -0.3100    0.0000 H   0  0  0  0  0  0  0  0  0  0  0  0
    6.1350   -3.3100    0.0000 H   0  0  0  0  0  0  0  0  0  0  0  0
    6.4641    2.1200    0.0000 H   0  0  0  0  0  0  0  0  0  0  0  0
    4.7320   -4.1200    0.0000 H   0  0  0  0  0  0  0  0  0  0  0  0
    7.8671    1.3100    0.0000 H   0  0  0  0  0  0  0  0  0  0  0  0
  1  7  2  0  0  0  0
  2  6  1  0  0  0  0
  2  8  1  0  0  0  0
  2  9  1  0  0  0  0
  2 21  1  0  0  0  0
  3  4  1  0  0  0  0
  3  5  1  0  0  0  0
  3  7  1  0  0  0  0
  4 11  2  0  0  0  0
  4 13  1  0  0  0  0
  5 12  2  0  0  0  0
  5 14  1  0  0  0  0
  6 10  2  0  0  0  0
  6 22  1  0  0  0  0
  7 10  1  0  0  0  0
  8 23  1  0  0  0  0
  8 27  1  0  0  0  0
  8 28  1  0  0  0  0
  9 24  1  0  0  0  0
  9 25  1  0  0  0  0
  9 26  1  0  0  0  0
 10 29  1  0  0  0  0
 11 15  1  0  0  0  0
 11 30  1  0  0  0  0
 12 16  1  0  0  0  0
 12 31  1  0  0  0  0
 13 17  2  0  0  0  0
 13 32  1  0  0  0  0
 14 18  2  0  0  0  0
 14 33  1  0  0  0  0
 15 19  2  0  0  0  0
 15 34  1  0  0  0  0
 16 20  2  0  0  0  0
 16 35  1  0  0  0  0
 17 19  1  0  0  0  0
 17 36  1  0  0  0  0
 18 20  1  0  0  0  0
 18 37  1  0  0  0  0
 19 38  1  0  0  0  0
 20 39  1  0  0  0  0
M  CHG  1   2   1
M  END
> <PUBCHEM_COMPOUND_CID>
26987859

> <PUBCHEM_COMPOUND_CANONICALIZED>
1

> <PUBCHEM_CACTVS_COMPLEXITY>
308

> <PUBCHEM_CACTVS_HBOND_ACCEPTOR>
1

> <PUBCHEM_CACTVS_HBOND_DONOR>
1

> <PUBCHEM_CACTVS_ROTATABLE_BOND>
4

> <PUBCHEM_CACTVS_SUBSKEYS>
AAADceB7AABAAAAAAAAAAAAAAAAAAAAAAAAwYAAAAAAAAAABQAAAHAQQAAAACAjBUAQywIPAAACEACRGQACCAAAhAggIiIAIZIgIIGLAkZGEIAhggADIyAcQAAAAAAAAAAAAAAAAAAAAAAAAAAAAAAAAAA==

> <PUBCHEM_IUPAC_OPENEYE_NAME>
dimethyl-[(E)-3-(N-phenylanilino)-3-thioxo-prop-1-enyl]ammonium

> <PUBCHEM_IUPAC_CAS_NAME>
dimethyl-[(E)-3-(N-phenylanilino)-3-sulfanylideneprop-1-enyl]ammonium

> <PUBCHEM_IUPAC_NAME>
dimethyl-[(E)-3-(N-phenylanilino)-3-sulfanylideneprop-1-enyl]azanium

> <PUBCHEM_IUPAC_SYSTEMATIC_NAME>
[(E)-3-(diphenylamino)-3-sulfanylidene-prop-1-enyl]-dimethyl-azanium

> <PUBCHEM_IUPAC_TRADITIONAL_NAME>
dimethyl-[(E)-3-(N-phenylanilino)-3-thioxo-prop-1-enyl]ammonium

> <PUBCHEM_IUPAC_INCHI>
InChI=1S/C17H18N2S/c1-18(2)14-13-17(20)19(15-9-5-3-6-10-15)16-11-7-4-8-12-16/h3-14H,1-2H3/p+1/b14-13+

> <PUBCHEM_IUPAC_INCHIKEY>
UTQQSPIWTXDZFB-BUHFOSPRSA-O

> <PUBCHEM_XLOGP3>
3.2

> <PUBCHEM_EXACT_MASS>
283.126895

> <PUBCHEM_MOLECULAR_FORMULA>
C17H19N2S+

> <PUBCHEM_MOLECULAR_WEIGHT>
283.41116

> <PUBCHEM_OPENEYE_CAN_SMILES>
C[NH+](C)C=CC(=S)N(C1=CC=CC=C1)C2=CC=CC=C2

> <PUBCHEM_OPENEYE_ISO_SMILES>
C[NH+](C)/C=C/C(=S)N(C1=CC=CC=C1)C2=CC=CC=C2

> <PUBCHEM_CACTVS_TPSA>
39.8

> <PUBCHEM_MONOISOTOPIC_WEIGHT>
283.126895

> <PUBCHEM_TOTAL_CHARGE>
1

> <PUBCHEM_HEAVY_ATOM_COUNT>
20

> <PUBCHEM_ATOM_DEF_STEREO_COUNT>
0

> <PUBCHEM_ATOM_UDEF_STEREO_COUNT>
0

> <PUBCHEM_BOND_DEF_STEREO_COUNT>
1

> <PUBCHEM_BOND_UDEF_STEREO_COUNT>
0

> <PUBCHEM_ISOTOPIC_ATOM_COUNT>
0

> <PUBCHEM_COMPONENT_COUNT>
1

> <PUBCHEM_CACTVS_TAUTO_COUNT>
3

> <PUBCHEM_COORDINATE_TYPE>
1
5
255

> <PUBCHEM_BONDANNOTATIONS>
11  15  8
12  16  8
13  17  8
14  18  8
15  19  8
16  20  8
17  19  8
18  20  8
4  11  8
4  13  8
5  12  8
5  14  8

$$$$
