54953003
  -OEChem-11301218062D

 38 39  0     1  0  0  0  0  0999 V2000
    5.4641    0.6970    0.0000 O   0  0  0  0  0  0  0  0  0  0  0  0
    3.7320    0.6970    0.0000 N   0  0  0  0  0  0  0  0  0  0  0  0
    6.4103   -2.6077    0.0000 N   0  0  0  0  0  0  0  0  0  0  0  0
    3.7320    1.6970    0.0000 C   0  0  3  0  0  0  0  0  0  0  0  0
    2.8660    2.1970    0.0000 C   0  0  0  0  0  0  0  0  0  0  0  0
    4.5981    2.1970    0.0000 C   0  0  0  0  0  0  0  0  0  0  0  0
    2.8660    3.1970    0.0000 C   0  0  0  0  0  0  0  0  0  0  0  0
    2.0000    1.6970    0.0000 C   0  0  0  0  0  0  0  0  0  0  0  0
    4.5981    3.1970    0.0000 C   0  0  0  0  0  0  0  0  0  0  0  0
    4.5981    0.1970    0.0000 C   0  0  0  0  0  0  0  0  0  0  0  0
    4.5981   -0.8030    0.0000 C   0  0  0  0  0  0  0  0  0  0  0  0
    5.4641   -1.3030    0.0000 C   0  0  0  0  0  0  0  0  0  0  0  0
    5.4641   -2.3030    0.0000 C   0  0  0  0  0  0  0  0  0  0  0  0
    3.7320   -1.3030    0.0000 C   0  0  0  0  0  0  0  0  0  0  0  0
    6.4103   -0.9982    0.0000 C   0  0  0  0  0  0  0  0  0  0  0  0
    4.5981   -2.8030    0.0000 C   0  0  0  0  0  0  0  0  0  0  0  0
    3.7320   -2.3030    0.0000 C   0  0  0  0  0  0  0  0  0  0  0  0
    6.9939   -1.8030    0.0000 C   0  0  0  0  0  0  0  0  0  0  0  0
    4.2690    1.3870    0.0000 H   0  0  0  0  0  0  0  0  0  0  0  0
    2.8660    1.5770    0.0000 H   0  0  0  0  0  0  0  0  0  0  0  0
    4.8101    1.6144    0.0000 H   0  0  0  0  0  0  0  0  0  0  0  0
    5.2087    2.3047    0.0000 H   0  0  0  0  0  0  0  0  0  0  0  0
    3.1951    0.3870    0.0000 H   0  0  0  0  0  0  0  0  0  0  0  0
    3.4860    3.1970    0.0000 H   0  0  0  0  0  0  0  0  0  0  0  0
    2.8660    3.8170    0.0000 H   0  0  0  0  0  0  0  0  0  0  0  0
    2.2460    3.1970    0.0000 H   0  0  0  0  0  0  0  0  0  0  0  0
    1.6900    2.2340    0.0000 H   0  0  0  0  0  0  0  0  0  0  0  0
    1.4631    1.3870    0.0000 H   0  0  0  0  0  0  0  0  0  0  0  0
    2.3100    1.1601    0.0000 H   0  0  0  0  0  0  0  0  0  0  0  0
    5.2181    3.1970    0.0000 H   0  0  0  0  0  0  0  0  0  0  0  0
    4.5981    3.8170    0.0000 H   0  0  0  0  0  0  0  0  0  0  0  0
    3.9781    3.1970    0.0000 H   0  0  0  0  0  0  0  0  0  0  0  0
    3.1951   -0.9930    0.0000 H   0  0  0  0  0  0  0  0  0  0  0  0
    6.6029   -0.4089    0.0000 H   0  0  0  0  0  0  0  0  0  0  0  0
    4.5981   -3.4230    0.0000 H   0  0  0  0  0  0  0  0  0  0  0  0
    6.6029   -3.1970    0.0000 H   0  0  0  0  0  0  0  0  0  0  0  0
    3.1951   -2.6130    0.0000 H   0  0  0  0  0  0  0  0  0  0  0  0
    7.6139   -1.8030    0.0000 H   0  0  0  0  0  0  0  0  0  0  0  0
  1 10  2  0  0  0  0
  2  4  1  0  0  0  0
  2 10  1  0  0  0  0
  2 23  1  0  0  0  0
  3 13  1  0  0  0  0
  3 18  1  0  0  0  0
  3 36  1  0  0  0  0
  4  5  1  0  0  0  0
  4  6  1  0  0  0  0
  4 19  1  0  0  0  0
  5  7  1  0  0  0  0
  5  8  1  0  0  0  0
  5 20  1  0  0  0  0
  6  9  1  0  0  0  0
  6 21  1  0  0  0  0
  6 22  1  0  0  0  0
  7 24  1  0  0  0  0
  7 25  1  0  0  0  0
  7 26  1  0  0  0  0
  8 27  1  0  0  0  0
  8 28  1  0  0  0  0
  8 29  1  0  0  0  0
  9 30  1  0  0  0  0
  9 31  1  0  0  0  0
  9 32  1  0  0  0  0
 10 11  1  0  0  0  0
 11 12  2  0  0  0  0
 11 14  1  0  0  0  0
 12 13  1  0  0  0  0
 12 15  1  0  0  0  0
 13 16  2  0  0  0  0
 14 17  2  0  0  0  0
 14 33  1  0  0  0  0
 15 18  2  0  0  0  0
 15 34  1  0  0  0  0
 16 17  1  0  0  0  0
 16 35  1  0  0  0  0
 17 37  1  0  0  0  0
 18 38  1  0  0  0  0
M  END
> <PUBCHEM_COMPOUND_CID>
54953003

> <PUBCHEM_COMPOUND_CANONICALIZED>
1

> <PUBCHEM_CACTVS_COMPLEXITY>
290

> <PUBCHEM_CACTVS_HBOND_ACCEPTOR>
1

> <PUBCHEM_CACTVS_HBOND_DONOR>
2

> <PUBCHEM_CACTVS_ROTATABLE_BOND>
4

> <PUBCHEM_CACTVS_SUBSKEYS>
AAADceBzIAAAAAAAAAAAAAAAAAAAAWAAAAAwAAAAAAAAAFgB8AAAHgAQAAAADSjBngQ+wPLJkACoAzV3VACCgCA1AiAI2aE4ZNgIIPLAlZGEIQhglgDIyYcciYCOgAAAQAASAAAAAACAACQAAAAAAAAAAA==

> <PUBCHEM_IUPAC_OPENEYE_NAME>
N-(1-ethyl-2-methyl-propyl)-1H-indole-4-carboxamide

> <PUBCHEM_IUPAC_CAS_NAME>
N-(2-methylpentan-3-yl)-1H-indole-4-carboxamide

> <PUBCHEM_IUPAC_NAME>
N-(2-methylpentan-3-yl)-1H-indole-4-carboxamide

> <PUBCHEM_IUPAC_SYSTEMATIC_NAME>
N-(2-methylpentan-3-yl)-1H-indole-4-carboxamide

> <PUBCHEM_IUPAC_TRADITIONAL_NAME>
N-(1-ethyl-2-methyl-propyl)-1H-indole-4-carboxamide

> <PUBCHEM_IUPAC_INCHI>
InChI=1S/C15H20N2O/c1-4-13(10(2)3)17-15(18)12-6-5-7-14-11(12)8-9-16-14/h5-10,13,16H,4H2,1-3H3,(H,17,18)

> <PUBCHEM_IUPAC_INCHIKEY>
AACAMKQYYYUBHW-UHFFFAOYSA-N

> <PUBCHEM_XLOGP3>
3.4

> <PUBCHEM_EXACT_MASS>
244.157563

> <PUBCHEM_MOLECULAR_FORMULA>
C15H20N2O

> <PUBCHEM_MOLECULAR_WEIGHT>
244.3321

> <PUBCHEM_OPENEYE_CAN_SMILES>
CCC(C(C)C)NC(=O)C1=C2C=CNC2=CC=C1

> <PUBCHEM_OPENEYE_ISO_SMILES>
CCC(C(C)C)NC(=O)C1=C2C=CNC2=CC=C1

> <PUBCHEM_CACTVS_TPSA>
44.9

> <PUBCHEM_MONOISOTOPIC_WEIGHT>
244.157563

> <PUBCHEM_TOTAL_CHARGE>
0

> <PUBCHEM_HEAVY_ATOM_COUNT>
18

> <PUBCHEM_ATOM_DEF_STEREO_COUNT>
0

> <PUBCHEM_ATOM_UDEF_STEREO_COUNT>
1

> <PUBCHEM_BOND_DEF_STEREO_COUNT>
0

> <PUBCHEM_BOND_UDEF_STEREO_COUNT>
0

> <PUBCHEM_ISOTOPIC_ATOM_COUNT>
0

> <PUBCHEM_COMPONENT_COUNT>
1

> <PUBCHEM_CACTVS_TAUTO_COUNT>
5

> <PUBCHEM_COORDINATE_TYPE>
1
5
255

> <PUBCHEM_BONDANNOTATIONS>
11  12  8
11  14  8
12  13  8
12  15  8
13  16  8
14  17  8
15  18  8
16  17  8
3  13  8
3  18  8
4  6  3

$$$$
54954293
  -OEChem-11301218062D

 41 42  0     1  0  0  0  0  0999 V2000
    4.5981    0.2327    0.0000 N   0  0  0  0  0  0  0  0  0  0  0  0
    3.7320   -0.2673    0.0000 C   0  0  3  0  0  0  0  0  0  0  0  0
    2.8660    0.2327    0.0000 C   0  0  0  0  0  0  0  0  0  0  0  0
    3.7320   -1.2673    0.0000 C   0  0  0  0  0  0  0  0  0  0  0  0
    2.0000   -0.2673    0.0000 C   0  0  0  0  0  0  0  0  0  0  0  0
    2.8660    1.2327    0.0000 C   0  0  0  0  0  0  0  0  0  0  0  0
    5.4641   -0.2673    0.0000 C   0  0  0  0  0  0  0  0  0  0  0  0
    2.8660   -1.7673    0.0000 C   0  0  0  0  0  0  0  0  0  0  0  0
    6.3301    0.2327    0.0000 C   0  0  0  0  0  0  0  0  0  0  0  0
    7.1962   -0.2673    0.0000 C   0  0  0  0  0  0  0  0  0  0  0  0
    6.3301    1.2327    0.0000 C   0  0  0  0  0  0  0  0  0  0  0  0
    8.0622    0.2327    0.0000 C   0  0  0  0  0  0  0  0  0  0  0  0
    8.0622    1.2327    0.0000 C   0  0  0  0  0  0  0  0  0  0  0  0
    7.1962    1.7327    0.0000 C   0  0  0  0  0  0  0  0  0  0  0  0
    8.9561   -0.3020    0.0000 C   0  0  0  0  0  0  0  0  0  0  0  0
    8.9561    1.7673    0.0000 C   0  0  0  0  0  0  0  0  0  0  0  0
    9.8622    0.2119    0.0000 C   0  0  0  0  0  0  0  0  0  0  0  0
    9.8622    1.2535    0.0000 C   0  0  0  0  0  0  0  0  0  0  0  0
    3.7320    0.3527    0.0000 H   0  0  0  0  0  0  0  0  0  0  0  0
    2.8660   -0.3873    0.0000 H   0  0  0  0  0  0  0  0  0  0  0  0
    3.9441   -1.8499    0.0000 H   0  0  0  0  0  0  0  0  0  0  0  0
    4.3426   -1.1597    0.0000 H   0  0  0  0  0  0  0  0  0  0  0  0
    4.5981    0.8527    0.0000 H   0  0  0  0  0  0  0  0  0  0  0  0
    5.0656   -0.7423    0.0000 H   0  0  0  0  0  0  0  0  0  0  0  0
    5.8626   -0.7423    0.0000 H   0  0  0  0  0  0  0  0  0  0  0  0
    1.6900    0.2696    0.0000 H   0  0  0  0  0  0  0  0  0  0  0  0
    1.4631   -0.5773    0.0000 H   0  0  0  0  0  0  0  0  0  0  0  0
    2.3100   -0.8043    0.0000 H   0  0  0  0  0  0  0  0  0  0  0  0
    3.4860    1.2327    0.0000 H   0  0  0  0  0  0  0  0  0  0  0  0
    2.8660    1.8527    0.0000 H   0  0  0  0  0  0  0  0  0  0  0  0
    2.2460    1.2327    0.0000 H   0  0  0  0  0  0  0  0  0  0  0  0
    2.5560   -1.2304    0.0000 H   0  0  0  0  0  0  0  0  0  0  0  0
    2.3291   -2.0773    0.0000 H   0  0  0  0  0  0  0  0  0  0  0  0
    3.1760   -2.3043    0.0000 H   0  0  0  0  0  0  0  0  0  0  0  0
    7.1962   -0.8873    0.0000 H   0  0  0  0  0  0  0  0  0  0  0  0
    5.7932    1.5427    0.0000 H   0  0  0  0  0  0  0  0  0  0  0  0
    7.1962    2.3527    0.0000 H   0  0  0  0  0  0  0  0  0  0  0  0
    8.9490   -0.9220    0.0000 H   0  0  0  0  0  0  0  0  0  0  0  0
    8.9490    2.3873    0.0000 H   0  0  0  0  0  0  0  0  0  0  0  0
   10.3979   -0.1002    0.0000 H   0  0  0  0  0  0  0  0  0  0  0  0
   10.3979    1.5656    0.0000 H   0  0  0  0  0  0  0  0  0  0  0  0
  1  2  1  0  0  0  0
  1  7  1  0  0  0  0
  1 23  1  0  0  0  0
  2  3  1  0  0  0  0
  2  4  1  0  0  0  0
  2 19  1  0  0  0  0
  3  5  1  0  0  0  0
  3  6  1  0  0  0  0
  3 20  1  0  0  0  0
  4  8  1  0  0  0  0
  4 21  1  0  0  0  0
  4 22  1  0  0  0  0
  5 26  1  0  0  0  0
  5 27  1  0  0  0  0
  5 28  1  0  0  0  0
  6 29  1  0  0  0  0
  6 30  1  0  0  0  0
  6 31  1  0  0  0  0
  7  9  1  0  0  0  0
  7 24  1  0  0  0  0
  7 25  1  0  0  0  0
  8 32  1  0  0  0  0
  8 33  1  0  0  0  0
  8 34  1  0  0  0  0
  9 10  2  0  0  0  0
  9 11  1  0  0  0  0
 10 12  1  0  0  0  0
 10 35  1  0  0  0  0
 11 14  2  0  0  0  0
 11 36  1  0  0  0  0
 12 13  1  0  0  0  0
 12 15  2  0  0  0  0
 13 14  1  0  0  0  0
 13 16  2  0  0  0  0
 14 37  1  0  0  0  0
 15 17  1  0  0  0  0
 15 38  1  0  0  0  0
 16 18  1  0  0  0  0
 16 39  1  0  0  0  0
 17 18  2  0  0  0  0
 17 40  1  0  0  0  0
 18 41  1  0  0  0  0
M  END
> <PUBCHEM_COMPOUND_CID>
54954293

> <PUBCHEM_COMPOUND_CANONICALIZED>
1

> <PUBCHEM_CACTVS_COMPLEXITY>
236

> <PUBCHEM_CACTVS_HBOND_ACCEPTOR>
1

> <PUBCHEM_CACTVS_HBOND_DONOR>
1

> <PUBCHEM_CACTVS_ROTATABLE_BOND>
5

> <PUBCHEM_CACTVS_SUBSKEYS>
AAADceB6AAAAAAAAAAAAAAAAAAAAAAAAAAAwYAAAAAAAAADBUAAAHAAQAAAADSjBGAQyAMLAAACAAiBCAACCAAAgAAAIiIAIBIgIICKAkRGEIAhgkACIiAcQgMAOwAACAAAQAACAAAQAACAAAAAAAAAAAA==

> <PUBCHEM_IUPAC_OPENEYE_NAME>
2-methyl-N-(2-naphthylmethyl)pentan-3-amine

> <PUBCHEM_IUPAC_CAS_NAME>
2-methyl-N-(2-naphthalenylmethyl)-3-pentanamine

> <PUBCHEM_IUPAC_NAME>
2-methyl-N-(naphthalen-2-ylmethyl)pentan-3-amine

> <PUBCHEM_IUPAC_SYSTEMATIC_NAME>
2-methyl-N-(naphthalen-2-ylmethyl)pentan-3-amine

> <PUBCHEM_IUPAC_TRADITIONAL_NAME>
(1-ethyl-2-methyl-propyl)-(2-naphthylmethyl)amine

> <PUBCHEM_IUPAC_INCHI>
InChI=1S/C17H23N/c1-4-17(13(2)3)18-12-14-9-10-15-7-5-6-8-16(15)11-14/h5-11,13,17-18H,4,12H2,1-3H3

> <PUBCHEM_IUPAC_INCHIKEY>
NHRCJDGSPWZGCU-UHFFFAOYSA-N

> <PUBCHEM_XLOGP3>
4.8

> <PUBCHEM_EXACT_MASS>
241.18305

> <PUBCHEM_MOLECULAR_FORMULA>
C17H23N

> <PUBCHEM_MOLECULAR_WEIGHT>
241.37122

> <PUBCHEM_OPENEYE_CAN_SMILES>
CCC(C(C)C)NCC1=CC2=CC=CC=C2C=C1

> <PUBCHEM_OPENEYE_ISO_SMILES>
CCC(C(C)C)NCC1=CC2=CC=CC=C2C=C1

> <PUBCHEM_CACTVS_TPSA>
12

> <PUBCHEM_MONOISOTOPIC_WEIGHT>
241.18305

> <PUBCHEM_TOTAL_CHARGE>
0

> <PUBCHEM_HEAVY_ATOM_COUNT>
18

> <PUBCHEM_ATOM_DEF_STEREO_COUNT>
0

> <PUBCHEM_ATOM_UDEF_STEREO_COUNT>
1

> <PUBCHEM_BOND_DEF_STEREO_COUNT>
0

> <PUBCHEM_BOND_UDEF_STEREO_COUNT>
0

> <PUBCHEM_ISOTOPIC_ATOM_COUNT>
0

> <PUBCHEM_COMPONENT_COUNT>
1

> <PUBCHEM_CACTVS_TAUTO_COUNT>
1

> <PUBCHEM_COORDINATE_TYPE>
1
5
255

> <PUBCHEM_BONDANNOTATIONS>
10  12  8
11  14  8
12  13  8
12  15  8
13  14  8
13  16  8
15  17  8
16  18  8
17  18  8
2  4  3
9  10  8
9  11  8

$$$$
54955770
  -OEChem-11301218062D

 38 39  0     1  0  0  0  0  0999 V2000
    5.4641    0.4470    0.0000 O   0  0  0  0  0  0  0  0  0  0  0  0
    3.7320    0.4470    0.0000 N   0  0  0  0  0  0  0  0  0  0  0  0
    6.4103   -2.8577    0.0000 N   0  0  0  0  0  0  0  0  0  0  0  0
    2.8660    1.9470    0.0000 C   0  0  3  0  0  0  0  0  0  0  0  0
    3.7320    1.4470    0.0000 C   0  0  3  0  0  0  0  0  0  0  0  0
    2.8660    2.9470    0.0000 C   0  0  0  0  0  0  0  0  0  0  0  0
    2.0000    1.4470    0.0000 C   0  0  0  0  0  0  0  0  0  0  0  0
    4.5981    1.9470    0.0000 C   0  0  0  0  0  0  0  0  0  0  0  0
    2.0000    3.4470    0.0000 C   0  0  0  0  0  0  0  0  0  0  0  0
    4.5981   -0.0530    0.0000 C   0  0  0  0  0  0  0  0  0  0  0  0
    4.5981   -1.0530    0.0000 C   0  0  0  0  0  0  0  0  0  0  0  0
    5.4641   -1.5530    0.0000 C   0  0  0  0  0  0  0  0  0  0  0  0
    5.4641   -2.5530    0.0000 C   0  0  0  0  0  0  0  0  0  0  0  0
    3.7320   -1.5530    0.0000 C   0  0  0  0  0  0  0  0  0  0  0  0
    6.4103   -1.2482    0.0000 C   0  0  0  0  0  0  0  0  0  0  0  0
    4.5981   -3.0530    0.0000 C   0  0  0  0  0  0  0  0  0  0  0  0
    3.7320   -2.5530    0.0000 C   0  0  0  0  0  0  0  0  0  0  0  0
    6.9939   -2.0530    0.0000 C   0  0  0  0  0  0  0  0  0  0  0  0
    2.8660    1.3270    0.0000 H   0  0  0  0  0  0  0  0  0  0  0  0
    4.2690    1.1370    0.0000 H   0  0  0  0  0  0  0  0  0  0  0  0
    3.4766    2.8394    0.0000 H   0  0  0  0  0  0  0  0  0  0  0  0
    3.0781    3.5296    0.0000 H   0  0  0  0  0  0  0  0  0  0  0  0
    1.6900    1.9840    0.0000 H   0  0  0  0  0  0  0  0  0  0  0  0
    1.4631    1.1370    0.0000 H   0  0  0  0  0  0  0  0  0  0  0  0
    2.3100    0.9101    0.0000 H   0  0  0  0  0  0  0  0  0  0  0  0
    4.9081    1.4101    0.0000 H   0  0  0  0  0  0  0  0  0  0  0  0
    5.1350    2.2570    0.0000 H   0  0  0  0  0  0  0  0  0  0  0  0
    4.2881    2.4840    0.0000 H   0  0  0  0  0  0  0  0  0  0  0  0
    3.1951    0.1370    0.0000 H   0  0  0  0  0  0  0  0  0  0  0  0
    2.3100    3.9840    0.0000 H   0  0  0  0  0  0  0  0  0  0  0  0
    1.4631    3.7570    0.0000 H   0  0  0  0  0  0  0  0  0  0  0  0
    1.6900    2.9101    0.0000 H   0  0  0  0  0  0  0  0  0  0  0  0
    3.1951   -1.2430    0.0000 H   0  0  0  0  0  0  0  0  0  0  0  0
    6.6029   -0.6589    0.0000 H   0  0  0  0  0  0  0  0  0  0  0  0
    4.5981   -3.6730    0.0000 H   0  0  0  0  0  0  0  0  0  0  0  0
    6.6029   -3.4470    0.0000 H   0  0  0  0  0  0  0  0  0  0  0  0
    3.1951   -2.8630    0.0000 H   0  0  0  0  0  0  0  0  0  0  0  0
    7.6139   -2.0530    0.0000 H   0  0  0  0  0  0  0  0  0  0  0  0
  1 10  2  0  0  0  0
  2  5  1  0  0  0  0
  2 10  1  0  0  0  0
  2 29  1  0  0  0  0
  3 13  1  0  0  0  0
  3 18  1  0  0  0  0
  3 36  1  0  0  0  0
  4  5  1  0  0  0  0
  4  6  1  0  0  0  0
  4  7  1  0  0  0  0
  4 19  1  0  0  0  0
  5  8  1  0  0  0  0
  5 20  1  0  0  0  0
  6  9  1  0  0  0  0
  6 21  1  0  0  0  0
  6 22  1  0  0  0  0
  7 23  1  0  0  0  0
  7 24  1  0  0  0  0
  7 25  1  0  0  0  0
  8 26  1  0  0  0  0
  8 27  1  0  0  0  0
  8 28  1  0  0  0  0
  9 30  1  0  0  0  0
  9 31  1  0  0  0  0
  9 32  1  0  0  0  0
 10 11  1  0  0  0  0
 11 12  2  0  0  0  0
 11 14  1  0  0  0  0
 12 13  1  0  0  0  0
 12 15  1  0  0  0  0
 13 16  2  0  0  0  0
 14 17  2  0  0  0  0
 14 33  1  0  0  0  0
 15 18  2  0  0  0  0
 15 34  1  0  0  0  0
 16 17  1  0  0  0  0
 16 35  1  0  0  0  0
 17 37  1  0  0  0  0
 18 38  1  0  0  0  0
M  END
> <PUBCHEM_COMPOUND_CID>
54955770

> <PUBCHEM_COMPOUND_CANONICALIZED>
1

> <PUBCHEM_CACTVS_COMPLEXITY>
292

> <PUBCHEM_CACTVS_HBOND_ACCEPTOR>
1

> <PUBCHEM_CACTVS_HBOND_DONOR>
2

> <PUBCHEM_CACTVS_ROTATABLE_BOND>
4

> <PUBCHEM_CACTVS_SUBSKEYS>
AAADceBzIAAAAAAAAAAAAAAAAAAAAWAAAAAwAAAAAAAAAFgB8AAAHgAQAAAADSjBngQ+wPLJkACoAzV3VACCgCA1AiAI2aE4ZNgIIPLAlZGEIQhglgDIyYcciYCOgAAAQAASAAAAAACAACQAAAAAAAAAAA==

> <PUBCHEM_IUPAC_OPENEYE_NAME>
N-(1,2-dimethylbutyl)-1H-indole-4-carboxamide

> <PUBCHEM_IUPAC_CAS_NAME>
N-(3-methylpentan-2-yl)-1H-indole-4-carboxamide

> <PUBCHEM_IUPAC_NAME>
N-(3-methylpentan-2-yl)-1H-indole-4-carboxamide

> <PUBCHEM_IUPAC_SYSTEMATIC_NAME>
N-(3-methylpentan-2-yl)-1H-indole-4-carboxamide

> <PUBCHEM_IUPAC_TRADITIONAL_NAME>
N-(1,2-dimethylbutyl)-1H-indole-4-carboxamide

> <PUBCHEM_IUPAC_INCHI>
InChI=1S/C15H20N2O/c1-4-10(2)11(3)17-15(18)13-6-5-7-14-12(13)8-9-16-14/h5-11,16H,4H2,1-3H3,(H,17,18)

> <PUBCHEM_IUPAC_INCHIKEY>
OXOIBELMUSOXKU-UHFFFAOYSA-N

> <PUBCHEM_XLOGP3>
3.2

> <PUBCHEM_EXACT_MASS>
244.157563

> <PUBCHEM_MOLECULAR_FORMULA>
C15H20N2O

> <PUBCHEM_MOLECULAR_WEIGHT>
244.3321

> <PUBCHEM_OPENEYE_CAN_SMILES>
CCC(C)C(C)NC(=O)C1=C2C=CNC2=CC=C1

> <PUBCHEM_OPENEYE_ISO_SMILES>
CCC(C)C(C)NC(=O)C1=C2C=CNC2=CC=C1

> <PUBCHEM_CACTVS_TPSA>
44.9

> <PUBCHEM_MONOISOTOPIC_WEIGHT>
244.157563

> <PUBCHEM_TOTAL_CHARGE>
0

> <PUBCHEM_HEAVY_ATOM_COUNT>
18

> <PUBCHEM_ATOM_DEF_STEREO_COUNT>
0

> <PUBCHEM_ATOM_UDEF_STEREO_COUNT>
2

> <PUBCHEM_BOND_DEF_STEREO_COUNT>
0

> <PUBCHEM_BOND_UDEF_STEREO_COUNT>
0

> <PUBCHEM_ISOTOPIC_ATOM_COUNT>
0

> <PUBCHEM_COMPONENT_COUNT>
1

> <PUBCHEM_CACTVS_TAUTO_COUNT>
5

> <PUBCHEM_COORDINATE_TYPE>
1
5
255

> <PUBCHEM_BONDANNOTATIONS>
11  12  8
11  14  8
12  13  8
12  15  8
13  16  8
14  17  8
15  18  8
16  17  8
3  13  8
3  18  8
4  7  3
5  8  3

$$$$
54970988
  -OEChem-11301218072D

 35 36  0     0  0  0  0  0  0999 V2000
    8.0556   -1.5987    0.0000 Br  0  0  0  0  0  0  0  0  0  0  0  0
    2.3244   -1.0766    0.0000 O   0  0  0  0  0  0  0  0  0  0  0  0
    3.7071   -0.1527    0.0000 N   0  0  0  0  0  0  0  0  0  0  0  0
    3.7071    2.2615    0.0000 C   0  0  0  0  0  0  0  0  0  0  0  0
    4.4142    1.5544    0.0000 C   0  0  0  0  0  0  0  0  0  0  0  0
    2.7071    2.2615    0.0000 C   0  0  0  0  0  0  0  0  0  0  0  0
    4.4142    0.5544    0.0000 C   0  0  0  0  0  0  0  0  0  0  0  0
    2.0000    1.5544    0.0000 C   0  0  0  0  0  0  0  0  0  0  0  0
    2.0000    0.5544    0.0000 C   0  0  0  0  0  0  0  0  0  0  0  0
    2.7071   -0.1527    0.0000 C   0  0  0  0  0  0  0  0  0  0  0  0
    4.0898   -1.0766    0.0000 C   0  0  0  0  0  0  0  0  0  0  0  0
    5.0812   -1.2071    0.0000 C   0  0  0  0  0  0  0  0  0  0  0  0
    5.4639   -2.1310    0.0000 C   0  0  0  0  0  0  0  0  0  0  0  0
    5.6900   -0.4138    0.0000 C   0  0  0  0  0  0  0  0  0  0  0  0
    6.4554   -2.2615    0.0000 C   0  0  0  0  0  0  0  0  0  0  0  0
    6.6814   -0.5443    0.0000 C   0  0  0  0  0  0  0  0  0  0  0  0
    7.0641   -1.4682    0.0000 C   0  0  0  0  0  0  0  0  0  0  0  0
    4.2440    2.5715    0.0000 H   0  0  0  0  0  0  0  0  0  0  0  0
    3.5466    2.8604    0.0000 H   0  0  0  0  0  0  0  0  0  0  0  0
    5.0131    1.3939    0.0000 H   0  0  0  0  0  0  0  0  0  0  0  0
    4.7242    2.0913    0.0000 H   0  0  0  0  0  0  0  0  0  0  0  0
    2.8676    2.8604    0.0000 H   0  0  0  0  0  0  0  0  0  0  0  0
    2.1702    2.5715    0.0000 H   0  0  0  0  0  0  0  0  0  0  0  0
    4.7242    0.0175    0.0000 H   0  0  0  0  0  0  0  0  0  0  0  0
    5.0131    0.7149    0.0000 H   0  0  0  0  0  0  0  0  0  0  0  0
    1.6900    2.0913    0.0000 H   0  0  0  0  0  0  0  0  0  0  0  0
    1.4011    1.3939    0.0000 H   0  0  0  0  0  0  0  0  0  0  0  0
    1.4011    0.7149    0.0000 H   0  0  0  0  0  0  0  0  0  0  0  0
    1.6900    0.0175    0.0000 H   0  0  0  0  0  0  0  0  0  0  0  0
    3.4845   -1.2108    0.0000 H   0  0  0  0  0  0  0  0  0  0  0  0
    4.1168   -1.6960    0.0000 H   0  0  0  0  0  0  0  0  0  0  0  0
    5.0865   -2.6229    0.0000 H   0  0  0  0  0  0  0  0  0  0  0  0
    5.4527    0.1591    0.0000 H   0  0  0  0  0  0  0  0  0  0  0  0
    6.6926   -2.8343    0.0000 H   0  0  0  0  0  0  0  0  0  0  0  0
    7.0589   -0.0524    0.0000 H   0  0  0  0  0  0  0  0  0  0  0  0
  1 17  1  0  0  0  0
  2 10  2  0  0  0  0
  3  7  1  0  0  0  0
  3 10  1  0  0  0  0
  3 11  1  0  0  0  0
  4  5  1  0  0  0  0
  4  6  1  0  0  0  0
  4 18  1  0  0  0  0
  4 19  1  0  0  0  0
  5  7  1  0  0  0  0
  5 20  1  0  0  0  0
  5 21  1  0  0  0  0
  6  8  1  0  0  0  0
  6 22  1  0  0  0  0
  6 23  1  0  0  0  0
  7 24  1  0  0  0  0
  7 25  1  0  0  0  0
  8  9  1  0  0  0  0
  8 26  1  0  0  0  0
  8 27  1  0  0  0  0
  9 10  1  0  0  0  0
  9 28  1  0  0  0  0
  9 29  1  0  0  0  0
 11 12  1  0  0  0  0
 11 30  1  0  0  0  0
 11 31  1  0  0  0  0
 12 13  2  0  0  0  0
 12 14  1  0  0  0  0
 13 15  1  0  0  0  0
 13 32  1  0  0  0  0
 14 16  2  0  0  0  0
 14 33  1  0  0  0  0
 15 17  2  0  0  0  0
 15 34  1  0  0  0  0
 16 17  1  0  0  0  0
 16 35  1  0  0  0  0
M  END
> <PUBCHEM_COMPOUND_CID>
54970988

> <PUBCHEM_COMPOUND_CANONICALIZED>
1

> <PUBCHEM_CACTVS_COMPLEXITY>
249

> <PUBCHEM_CACTVS_HBOND_ACCEPTOR>
1

> <PUBCHEM_CACTVS_HBOND_DONOR>
0

> <PUBCHEM_CACTVS_ROTATABLE_BOND>
2

> <PUBCHEM_CACTVS_SUBSKEYS>
AAADceByIAAAEAAAAAAAAAAAAAAAAAAAAAAwAAAAAAAWAAABAAAAHgBAAAABrADBmAQwAIMAAACIAiFSEACCAAAgAAQIiAEIBKgIIDKAkRGEIAhghgCIihcYiACOAgAAAAAAAAAEAAAAAAAAAAAAAAAAAA==

> <PUBCHEM_IUPAC_OPENEYE_NAME>
1-[(4-bromophenyl)methyl]azocan-2-one

> <PUBCHEM_IUPAC_CAS_NAME>
1-[(4-bromophenyl)methyl]-2-azocanone

> <PUBCHEM_IUPAC_NAME>
1-[(4-bromophenyl)methyl]azocan-2-one

> <PUBCHEM_IUPAC_SYSTEMATIC_NAME>
1-[(4-bromophenyl)methyl]azocan-2-one

> <PUBCHEM_IUPAC_TRADITIONAL_NAME>
1-(4-bromobenzyl)azocan-2-one

> <PUBCHEM_IUPAC_INCHI>
InChI=1S/C14H18BrNO/c15-13-8-6-12(7-9-13)11-16-10-4-2-1-3-5-14(16)17/h6-9H,1-5,10-11H2

> <PUBCHEM_IUPAC_INCHIKEY>
HNPPQFHXIKRMQF-UHFFFAOYSA-N

> <PUBCHEM_XLOGP3>
3.2

> <PUBCHEM_EXACT_MASS>
295.057176

> <PUBCHEM_MOLECULAR_FORMULA>
C14H18BrNO

> <PUBCHEM_MOLECULAR_WEIGHT>
296.20282

> <PUBCHEM_OPENEYE_CAN_SMILES>
C1CCCN(C(=O)CC1)CC2=CC=C(C=C2)Br

> <PUBCHEM_OPENEYE_ISO_SMILES>
C1CCCN(C(=O)CC1)CC2=CC=C(C=C2)Br

> <PUBCHEM_CACTVS_TPSA>
20.3

> <PUBCHEM_MONOISOTOPIC_WEIGHT>
295.057176

> <PUBCHEM_TOTAL_CHARGE>
0

> <PUBCHEM_HEAVY_ATOM_COUNT>
17

> <PUBCHEM_ATOM_DEF_STEREO_COUNT>
0

> <PUBCHEM_ATOM_UDEF_STEREO_COUNT>
0

> <PUBCHEM_BOND_DEF_STEREO_COUNT>
0

> <PUBCHEM_BOND_UDEF_STEREO_COUNT>
0

> <PUBCHEM_ISOTOPIC_ATOM_COUNT>
0

> <PUBCHEM_COMPONENT_COUNT>
1

> <PUBCHEM_CACTVS_TAUTO_COUNT>
2

> <PUBCHEM_COORDINATE_TYPE>
1
5
255

> <PUBCHEM_BONDANNOTATIONS>
12  13  8
12  14  8
13  15  8
14  16  8
15  17  8
16  17  8

$$$$
