37839196
  -OEChem-12041211522D

 57 59  0     0  0  0  0  0  0999 V2000
    8.0622    2.0600    0.0000 S   0  0  0  0  0  0  0  0  0  0  0  0
    6.3301   -2.9400    0.0000 S   0  0  0  0  0  0  0  0  0  0  0  0
    7.5622    2.9260    0.0000 O   0  0  0  0  0  0  0  0  0  0  0  0
    8.5622    1.1940    0.0000 O   0  0  0  0  0  0  0  0  0  0  0  0
    3.7320    0.5600    0.0000 O   0  0  0  0  0  0  0  0  0  0  0  0
    2.8660   -0.9400    0.0000 O   0  0  0  0  0  0  0  0  0  0  0  0
    5.8301   -3.8060    0.0000 O   0  0  0  0  0  0  0  0  0  0  0  0
    6.8301   -2.0740    0.0000 O   0  0  0  0  0  0  0  0  0  0  0  0
    7.1962    1.5600    0.0000 N   0  0  0  0  0  0  0  0  0  0  0  0
    8.9282    2.5600    0.0000 N   0  0  0  0  0  0  0  0  0  0  0  0
    5.4641    0.5600    0.0000 N   0  0  0  0  0  0  0  0  0  0  0  0
   10.6603    3.5600    0.0000 N   0  0  0  0  0  0  0  0  0  0  0  0
    7.1962   -3.4400    0.0000 N   0  0  0  0  0  0  0  0  0  0  0  0
    6.3301    2.0600    0.0000 C   0  0  0  0  0  0  0  0  0  0  0  0
    7.1962    0.5600    0.0000 C   0  0  0  0  0  0  0  0  0  0  0  0
    9.7942    2.0600    0.0000 C   0  0  0  0  0  0  0  0  0  0  0  0
    8.9282    3.5600    0.0000 C   0  0  0  0  0  0  0  0  0  0  0  0
    5.4641    1.5600    0.0000 C   0  0  0  0  0  0  0  0  0  0  0  0
    6.3301    0.0600    0.0000 C   0  0  0  0  0  0  0  0  0  0  0  0
    9.7942    4.0600    0.0000 C   0  0  0  0  0  0  0  0  0  0  0  0
   10.6603    2.5600    0.0000 C   0  0  0  0  0  0  0  0  0  0  0  0
   11.5263    4.0600    0.0000 C   0  0  0  0  0  0  0  0  0  0  0  0
    4.5981    0.0600    0.0000 C   0  0  0  0  0  0  0  0  0  0  0  0
    4.5981   -0.9400    0.0000 C   0  0  0  0  0  0  0  0  0  0  0  0
    5.4641   -1.4400    0.0000 C   0  0  0  0  0  0  0  0  0  0  0  0
    3.7320   -1.4400    0.0000 C   0  0  0  0  0  0  0  0  0  0  0  0
    5.4641   -2.4400    0.0000 C   0  0  0  0  0  0  0  0  0  0  0  0
    3.7320   -2.4400    0.0000 C   0  0  0  0  0  0  0  0  0  0  0  0
    4.5981   -2.9400    0.0000 C   0  0  0  0  0  0  0  0  0  0  0  0
    2.0000   -1.4400    0.0000 C   0  0  0  0  0  0  0  0  0  0  0  0
    7.4082   -0.0226    0.0000 H   0  0  0  0  0  0  0  0  0  0  0  0
    7.8067    0.6677    0.0000 H   0  0  0  0  0  0  0  0  0  0  0  0
    6.7287    2.5349    0.0000 H   0  0  0  0  0  0  0  0  0  0  0  0
    5.9316    2.5349    0.0000 H   0  0  0  0  0  0  0  0  0  0  0  0
    9.3957    1.5850    0.0000 H   0  0  0  0  0  0  0  0  0  0  0  0
   10.1928    1.5850    0.0000 H   0  0  0  0  0  0  0  0  0  0  0  0
    8.7162    4.1426    0.0000 H   0  0  0  0  0  0  0  0  0  0  0  0
    8.3176    3.4523    0.0000 H   0  0  0  0  0  0  0  0  0  0  0  0
    5.9316   -0.4149    0.0000 H   0  0  0  0  0  0  0  0  0  0  0  0
    6.7287   -0.4149    0.0000 H   0  0  0  0  0  0  0  0  0  0  0  0
    5.2520    2.1426    0.0000 H   0  0  0  0  0  0  0  0  0  0  0  0
    4.8535    1.4523    0.0000 H   0  0  0  0  0  0  0  0  0  0  0  0
   10.8723    1.9774    0.0000 H   0  0  0  0  0  0  0  0  0  0  0  0
   11.2708    2.6677    0.0000 H   0  0  0  0  0  0  0  0  0  0  0  0
   10.1928    4.5350    0.0000 H   0  0  0  0  0  0  0  0  0  0  0  0
    9.3957    4.5350    0.0000 H   0  0  0  0  0  0  0  0  0  0  0  0
   11.8363    3.5231    0.0000 H   0  0  0  0  0  0  0  0  0  0  0  0
   12.0632    4.3700    0.0000 H   0  0  0  0  0  0  0  0  0  0  0  0
   11.2163    4.5969    0.0000 H   0  0  0  0  0  0  0  0  0  0  0  0
    6.0010   -1.1300    0.0000 H   0  0  0  0  0  0  0  0  0  0  0  0
    3.1951   -2.7500    0.0000 H   0  0  0  0  0  0  0  0  0  0  0  0
    4.5981   -3.5600    0.0000 H   0  0  0  0  0  0  0  0  0  0  0  0
    1.6900   -0.9031    0.0000 H   0  0  0  0  0  0  0  0  0  0  0  0
    1.4631   -1.7500    0.0000 H   0  0  0  0  0  0  0  0  0  0  0  0
    2.3100   -1.9769    0.0000 H   0  0  0  0  0  0  0  0  0  0  0  0
    7.1962   -4.0600    0.0000 H   0  0  0  0  0  0  0  0  0  0  0  0
    7.7331   -3.1300    0.0000 H   0  0  0  0  0  0  0  0  0  0  0  0
  1  3  2  0  0  0  0
  1  4  2  0  0  0  0
  1  9  1  0  0  0  0
  1 10  1  0  0  0  0
  2  7  2  0  0  0  0
  2  8  2  0  0  0  0
  2 13  1  0  0  0  0
  2 27  1  0  0  0  0
  5 23  2  0  0  0  0
  6 26  1  0  0  0  0
  6 30  1  0  0  0  0
  9 14  1  0  0  0  0
  9 15  1  0  0  0  0
 10 16  1  0  0  0  0
 10 17  1  0  0  0  0
 11 18  1  0  0  0  0
 11 19  1  0  0  0  0
 11 23  1  0  0  0  0
 12 20  1  0  0  0  0
 12 21  1  0  0  0  0
 12 22  1  0  0  0  0
 13 56  1  0  0  0  0
 13 57  1  0  0  0  0
 14 18  1  0  0  0  0
 14 33  1  0  0  0  0
 14 34  1  0  0  0  0
 15 19  1  0  0  0  0
 15 31  1  0  0  0  0
 15 32  1  0  0  0  0
 16 21  1  0  0  0  0
 16 35  1  0  0  0  0
 16 36  1  0  0  0  0
 17 20  1  0  0  0  0
 17 37  1  0  0  0  0
 17 38  1  0  0  0  0
 18 41  1  0  0  0  0
 18 42  1  0  0  0  0
 19 39  1  0  0  0  0
 19 40  1  0  0  0  0
 20 45  1  0  0  0  0
 20 46  1  0  0  0  0
 21 43  1  0  0  0  0
 21 44  1  0  0  0  0
 22 47  1  0  0  0  0
 22 48  1  0  0  0  0
 22 49  1  0  0  0  0
 23 24  1  0  0  0  0
 24 25  1  0  0  0  0
 24 26  2  0  0  0  0
 25 27  2  0  0  0  0
 25 50  1  0  0  0  0
 26 28  1  0  0  0  0
 27 29  1  0  0  0  0
 28 29  2  0  0  0  0
 28 51  1  0  0  0  0
 29 52  1  0  0  0  0
 30 53  1  0  0  0  0
 30 54  1  0  0  0  0
 30 55  1  0  0  0  0
M  END
> <PUBCHEM_COMPOUND_CID>
37839196

> <PUBCHEM_COMPOUND_CANONICALIZED>
1

> <PUBCHEM_CACTVS_COMPLEXITY>
809

> <PUBCHEM_CACTVS_HBOND_ACCEPTOR>
10

> <PUBCHEM_CACTVS_HBOND_DONOR>
1

> <PUBCHEM_CACTVS_ROTATABLE_BOND>
5

> <PUBCHEM_CACTVS_SUBSKEYS>
AAADceB7uABgAAAAAAAAAAAAAAAAAAAAAAA8WIAAAAAAAAABAAAAHgQQQAAADATB2AYyB4MABAKIAiFSEHDCCBAkIAAIiBkODMgMZjaEtRuUMWhm5hGIqYeYyCCOAIAAgAAIAAABAAEAABAAAAAAAAAAAA==

> <PUBCHEM_IUPAC_OPENEYE_NAME>
4-methoxy-3-[4-(4-methylpiperazin-1-yl)sulfonylpiperazine-1-carbonyl]benzenesulfonamide

> <PUBCHEM_IUPAC_CAS_NAME>
4-methoxy-3-[[4-[(4-methyl-1-piperazinyl)sulfonyl]-1-piperazinyl]-oxomethyl]benzenesulfonamide

> <PUBCHEM_IUPAC_NAME>
4-methoxy-3-[4-(4-methylpiperazin-1-yl)sulfonylpiperazine-1-carbonyl]benzenesulfonamide

> <PUBCHEM_IUPAC_SYSTEMATIC_NAME>
4-methoxy-3-[4-(4-methylpiperazin-1-yl)sulfonylpiperazin-1-yl]carbonyl-benzenesulfonamide

> <PUBCHEM_IUPAC_TRADITIONAL_NAME>
4-methoxy-3-[4-(4-methylpiperazino)sulfonylpiperazine-1-carbonyl]benzenesulfonamide

> <PUBCHEM_IUPAC_INCHI>
InChI=1S/C17H27N5O6S2/c1-19-5-9-21(10-6-19)30(26,27)22-11-7-20(8-12-22)17(23)15-13-14(29(18,24)25)3-4-16(15)28-2/h3-4,13H,5-12H2,1-2H3,(H2,18,24,25)

> <PUBCHEM_IUPAC_INCHIKEY>
LACBVTAUPPTQGU-UHFFFAOYSA-N

> <PUBCHEM_XLOGP3>
-2.2

> <PUBCHEM_EXACT_MASS>
461.140276

> <PUBCHEM_MOLECULAR_FORMULA>
C17H27N5O6S2

> <PUBCHEM_MOLECULAR_WEIGHT>
461.55618

> <PUBCHEM_OPENEYE_CAN_SMILES>
CN1CCN(CC1)S(=O)(=O)N2CCN(CC2)C(=O)C3=C(C=CC(=C3)S(=O)(=O)N)OC

> <PUBCHEM_OPENEYE_ISO_SMILES>
CN1CCN(CC1)S(=O)(=O)N2CCN(CC2)C(=O)C3=C(C=CC(=C3)S(=O)(=O)N)OC

> <PUBCHEM_CACTVS_TPSA>
150

> <PUBCHEM_MONOISOTOPIC_WEIGHT>
461.140276

> <PUBCHEM_TOTAL_CHARGE>
0

> <PUBCHEM_HEAVY_ATOM_COUNT>
30

> <PUBCHEM_ATOM_DEF_STEREO_COUNT>
0

> <PUBCHEM_ATOM_UDEF_STEREO_COUNT>
0

> <PUBCHEM_BOND_DEF_STEREO_COUNT>
0

> <PUBCHEM_BOND_UDEF_STEREO_COUNT>
0

> <PUBCHEM_ISOTOPIC_ATOM_COUNT>
0

> <PUBCHEM_COMPONENT_COUNT>
1

> <PUBCHEM_CACTVS_TAUTO_COUNT>
1

> <PUBCHEM_COORDINATE_TYPE>
1
5
255

> <PUBCHEM_BONDANNOTATIONS>
24  25  8
24  26  8
25  27  8
26  28  8
27  29  8
28  29  8

$$$$
