41409932
  -OEChem-12041211592D

 42 44  0     1  0  0  0  0  0999 V2000
    8.9282    1.8100    0.0000 O   0  0  0  0  0  0  0  0  0  0  0  0
    6.3301   -0.6900    0.0000 N   0  3  3  0  0  0  0  0  0  0  0  0
    8.9282   -1.1900    0.0000 N   0  0  0  0  0  0  0  0  0  0  0  0
    8.0622    0.3100    0.0000 N   0  0  0  0  0  0  0  0  0  0  0  0
    5.4641   -0.1900    0.0000 C   0  0  0  0  0  0  0  0  0  0  0  0
    7.1962   -1.1900    0.0000 C   0  0  0  0  0  0  0  0  0  0  0  0
    4.5981   -0.6900    0.0000 C   0  0  0  0  0  0  0  0  0  0  0  0
    5.8301   -1.5560    0.0000 C   0  0  0  0  0  0  0  0  0  0  0  0
    8.0622   -0.6900    0.0000 C   0  0  0  0  0  0  0  0  0  0  0  0
    3.7320   -0.1900    0.0000 C   0  0  0  0  0  0  0  0  0  0  0  0
    9.7942   -0.6900    0.0000 C   0  0  0  0  0  0  0  0  0  0  0  0
    9.7942    0.3100    0.0000 C   0  0  0  0  0  0  0  0  0  0  0  0
    3.7320    0.8100    0.0000 C   0  0  0  0  0  0  0  0  0  0  0  0
    2.8660   -0.6900    0.0000 C   0  0  0  0  0  0  0  0  0  0  0  0
    8.9282    0.8100    0.0000 C   0  0  0  0  0  0  0  0  0  0  0  0
   10.6882   -1.2247    0.0000 C   0  0  0  0  0  0  0  0  0  0  0  0
   10.6882    0.8447    0.0000 C   0  0  0  0  0  0  0  0  0  0  0  0
    2.8660    1.3100    0.0000 C   0  0  0  0  0  0  0  0  0  0  0  0
    2.0000   -0.1900    0.0000 C   0  0  0  0  0  0  0  0  0  0  0  0
   11.5942   -0.7108    0.0000 C   0  0  0  0  0  0  0  0  0  0  0  0
    2.0000    0.8100    0.0000 C   0  0  0  0  0  0  0  0  0  0  0  0
   11.5942    0.3308    0.0000 C   0  0  0  0  0  0  0  0  0  0  0  0
    6.6401   -0.1531    0.0000 H   0  0  0  0  0  0  0  0  0  0  0  0
    5.8626    0.2849    0.0000 H   0  0  0  0  0  0  0  0  0  0  0  0
    5.0656    0.2849    0.0000 H   0  0  0  0  0  0  0  0  0  0  0  0
    6.7976   -1.6650    0.0000 H   0  0  0  0  0  0  0  0  0  0  0  0
    7.5947   -1.6650    0.0000 H   0  0  0  0  0  0  0  0  0  0  0  0
    4.1996   -1.1650    0.0000 H   0  0  0  0  0  0  0  0  0  0  0  0
    4.9966   -1.1650    0.0000 H   0  0  0  0  0  0  0  0  0  0  0  0
    5.2932   -1.2460    0.0000 H   0  0  0  0  0  0  0  0  0  0  0  0
    5.5201   -2.0930    0.0000 H   0  0  0  0  0  0  0  0  0  0  0  0
    6.3671   -1.8660    0.0000 H   0  0  0  0  0  0  0  0  0  0  0  0
    8.9282   -1.8100    0.0000 H   0  0  0  0  0  0  0  0  0  0  0  0
    4.2690    1.1200    0.0000 H   0  0  0  0  0  0  0  0  0  0  0  0
    2.8660   -1.3100    0.0000 H   0  0  0  0  0  0  0  0  0  0  0  0
   10.6810   -1.8446    0.0000 H   0  0  0  0  0  0  0  0  0  0  0  0
   10.6810    1.4646    0.0000 H   0  0  0  0  0  0  0  0  0  0  0  0
    2.8660    1.9300    0.0000 H   0  0  0  0  0  0  0  0  0  0  0  0
    1.4631   -0.5000    0.0000 H   0  0  0  0  0  0  0  0  0  0  0  0
   12.1300   -1.0229    0.0000 H   0  0  0  0  0  0  0  0  0  0  0  0
   12.1300    0.6429    0.0000 H   0  0  0  0  0  0  0  0  0  0  0  0
    1.4631    1.1200    0.0000 H   0  0  0  0  0  0  0  0  0  0  0  0
  1 15  2  0  0  0  0
  2  5  1  0  0  0  0
  2  6  1  0  0  0  0
  2  8  1  0  0  0  0
  2 23  1  0  0  0  0
  3  9  1  0  0  0  0
  3 11  1  0  0  0  0
  3 33  1  0  0  0  0
  4  9  2  0  0  0  0
  4 15  1  0  0  0  0
  5  7  1  0  0  0  0
  5 24  1  0  0  0  0
  5 25  1  0  0  0  0
  6  9  1  0  0  0  0
  6 26  1  0  0  0  0
  6 27  1  0  0  0  0
  7 10  1  0  0  0  0
  7 28  1  0  0  0  0
  7 29  1  0  0  0  0
  8 30  1  0  0  0  0
  8 31  1  0  0  0  0
  8 32  1  0  0  0  0
 10 13  2  0  0  0  0
 10 14  1  0  0  0  0
 11 12  1  0  0  0  0
 11 16  2  0  0  0  0
 12 15  1  0  0  0  0
 12 17  2  0  0  0  0
 13 18  1  0  0  0  0
 13 34  1  0  0  0  0
 14 19  2  0  0  0  0
 14 35  1  0  0  0  0
 16 20  1  0  0  0  0
 16 36  1  0  0  0  0
 17 22  1  0  0  0  0
 17 37  1  0  0  0  0
 18 21  2  0  0  0  0
 18 38  1  0  0  0  0
 19 21  1  0  0  0  0
 19 39  1  0  0  0  0
 20 22  2  0  0  0  0
 20 40  1  0  0  0  0
 21 42  1  0  0  0  0
 22 41  1  0  0  0  0
M  CHG  1   2   1
M  END
> <PUBCHEM_COMPOUND_CID>
41409932

> <PUBCHEM_COMPOUND_CANONICALIZED>
1

> <PUBCHEM_CACTVS_COMPLEXITY>
415

> <PUBCHEM_CACTVS_HBOND_ACCEPTOR>
1

> <PUBCHEM_CACTVS_HBOND_DONOR>
2

> <PUBCHEM_CACTVS_ROTATABLE_BOND>
5

> <PUBCHEM_CACTVS_SUBSKEYS>
AAADceB7IAAAAAAAAAAAAAAAAAAAAAAAAAAwYIAAAAAAAACBQAAAHgAQAAAADAjBmAQzwIPAAACoAidydACCAAElAgAJiIEYZMgIYDrA3ZGUIYhgkADIyccYiICOAAAAAAACAAAAAAAAAAQAAAAAAAAAAA==

> <PUBCHEM_IUPAC_OPENEYE_NAME>
methyl-[(4-oxo-1H-quinazolin-2-yl)methyl]-(2-phenylethyl)ammonium

> <PUBCHEM_IUPAC_CAS_NAME>
methyl-[(4-oxo-1H-quinazolin-2-yl)methyl]-(2-phenylethyl)ammonium

> <PUBCHEM_IUPAC_NAME>
methyl-[(4-oxo-1H-quinazolin-2-yl)methyl]-(2-phenylethyl)azanium

> <PUBCHEM_IUPAC_SYSTEMATIC_NAME>
methyl-[(4-oxidanylidene-1H-quinazolin-2-yl)methyl]-(2-phenylethyl)azanium

> <PUBCHEM_IUPAC_TRADITIONAL_NAME>
(4-keto-1H-quinazolin-2-yl)methyl-methyl-phenethyl-ammonium

> <PUBCHEM_IUPAC_INCHI>
InChI=1S/C18H19N3O/c1-21(12-11-14-7-3-2-4-8-14)13-17-19-16-10-6-5-9-15(16)18(22)20-17/h2-10H,11-13H2,1H3,(H,19,20,22)/p+1

> <PUBCHEM_IUPAC_INCHIKEY>
URSMZIOAMBPWML-UHFFFAOYSA-O

> <PUBCHEM_XLOGP3>
3.2

> <PUBCHEM_EXACT_MASS>
294.160637

> <PUBCHEM_MOLECULAR_FORMULA>
C18H20N3O+

> <PUBCHEM_MOLECULAR_WEIGHT>
294.3709

> <PUBCHEM_OPENEYE_CAN_SMILES>
C[NH+](CCC1=CC=CC=C1)CC2=NC(=O)C3=CC=CC=C3N2

> <PUBCHEM_OPENEYE_ISO_SMILES>
C[NH+](CCC1=CC=CC=C1)CC2=NC(=O)C3=CC=CC=C3N2

> <PUBCHEM_CACTVS_TPSA>
45.9

> <PUBCHEM_MONOISOTOPIC_WEIGHT>
294.160637

> <PUBCHEM_TOTAL_CHARGE>
1

> <PUBCHEM_HEAVY_ATOM_COUNT>
22

> <PUBCHEM_ATOM_DEF_STEREO_COUNT>
0

> <PUBCHEM_ATOM_UDEF_STEREO_COUNT>
0

> <PUBCHEM_BOND_DEF_STEREO_COUNT>
0

> <PUBCHEM_BOND_UDEF_STEREO_COUNT>
0

> <PUBCHEM_ISOTOPIC_ATOM_COUNT>
0

> <PUBCHEM_COMPONENT_COUNT>
1

> <PUBCHEM_CACTVS_TAUTO_COUNT>
25

> <PUBCHEM_COORDINATE_TYPE>
1
5
255

> <PUBCHEM_BONDANNOTATIONS>
10  13  8
10  14  8
11  12  8
11  16  8
12  15  8
12  17  8
13  18  8
14  19  8
16  20  8
17  22  8
18  21  8
19  21  8
20  22  8
3  11  8
3  9  8
4  15  8
4  9  8

$$$$
41413038
  -OEChem-12041211592D

 58 61  0     0  0  0  0  0  0999 V2000
    5.6103    0.0700    0.0000 O   0  0  0  0  0  0  0  0  0  0  0  0
    8.4993    3.3340    0.0000 N   0  3  0  0  0  0  0  0  0  0  0  0
    7.2566   -0.4681    0.0000 N   0  0  0  0  0  0  0  0  0  0  0  0
    4.6783   -4.3910    0.0000 N   0  0  0  0  0  0  0  0  0  0  0  0
    9.4498    3.0233    0.0000 C   0  0  0  0  0  0  0  0  0  0  0  0
    8.2930    4.3125    0.0000 C   0  0  0  0  0  0  0  0  0  0  0  0
    9.0373    4.9803    0.0000 C   0  0  0  0  0  0  0  0  0  0  0  0
   10.1941    3.6912    0.0000 C   0  0  0  0  0  0  0  0  0  0  0  0
    9.9879    4.6697    0.0000 C   0  0  0  0  0  0  0  0  0  0  0  0
    8.1886    2.3835    0.0000 C   0  0  0  0  0  0  0  0  0  0  0  0
    8.8564    1.6392    0.0000 C   0  0  0  0  0  0  0  0  0  0  0  0
    8.5458    0.6887    0.0000 C   0  0  0  0  0  0  0  0  0  0  0  0
    9.8349    1.8454    0.0000 C   0  0  0  0  0  0  0  0  0  0  0  0
    7.5673    0.4824    0.0000 C   0  0  0  0  0  0  0  0  0  0  0  0
    9.2136   -0.0556    0.0000 C   0  0  0  0  0  0  0  0  0  0  0  0
   10.5028    1.1011    0.0000 C   0  0  0  0  0  0  0  0  0  0  0  0
   10.1921    0.1506    0.0000 C   0  0  0  0  0  0  0  0  0  0  0  0
    4.9889   -1.8310    0.0000 C   0  0  0  0  0  0  0  0  0  0  0  0
    5.9674   -1.6248    0.0000 C   0  0  0  0  0  0  0  0  0  0  0  0
    6.2781   -0.6743    0.0000 C   0  0  0  0  0  0  0  0  0  0  0  0
    4.6783   -2.7816    0.0000 C   0  0  0  0  0  0  0  0  0  0  0  0
    3.7320   -3.0863    0.0000 C   0  0  0  0  0  0  0  0  0  0  0  0
    3.7320   -4.0863    0.0000 C   0  0  0  0  0  0  0  0  0  0  0  0
    5.2619   -3.5863    0.0000 C   0  0  0  0  0  0  0  0  0  0  0  0
    2.8660   -2.5863    0.0000 C   0  0  0  0  0  0  0  0  0  0  0  0
    2.8660   -4.5863    0.0000 C   0  0  0  0  0  0  0  0  0  0  0  0
    2.0000   -3.0863    0.0000 C   0  0  0  0  0  0  0  0  0  0  0  0
    2.0000   -4.0863    0.0000 C   0  0  0  0  0  0  0  0  0  0  0  0
    7.5208    3.1278    0.0000 H   0  0  0  0  0  0  0  0  0  0  0  0
    7.9654    4.8389    0.0000 H   0  0  0  0  0  0  0  0  0  0  0  0
    7.7178    4.0812    0.0000 H   0  0  0  0  0  0  0  0  0  0  0  0
    9.1578    2.4764    0.0000 H   0  0  0  0  0  0  0  0  0  0  0  0
    9.9377    2.6408    0.0000 H   0  0  0  0  0  0  0  0  0  0  0  0
    9.3294    5.5273    0.0000 H   0  0  0  0  0  0  0  0  0  0  0  0
    8.5494    5.3629    0.0000 H   0  0  0  0  0  0  0  0  0  0  0  0
   10.5217    3.1648    0.0000 H   0  0  0  0  0  0  0  0  0  0  0  0
   10.7693    3.9224    0.0000 H   0  0  0  0  0  0  0  0  0  0  0  0
   10.6075    4.6902    0.0000 H   0  0  0  0  0  0  0  0  0  0  0  0
   10.0752    5.2835    0.0000 H   0  0  0  0  0  0  0  0  0  0  0  0
    7.6417    2.6755    0.0000 H   0  0  0  0  0  0  0  0  0  0  0  0
    7.8060    1.8956    0.0000 H   0  0  0  0  0  0  0  0  0  0  0  0
   10.0276    2.4347    0.0000 H   0  0  0  0  0  0  0  0  0  0  0  0
    7.5467    1.1021    0.0000 H   0  0  0  0  0  0  0  0  0  0  0  0
    6.9534    0.5698    0.0000 H   0  0  0  0  0  0  0  0  0  0  0  0
    9.0210   -0.6450    0.0000 H   0  0  0  0  0  0  0  0  0  0  0  0
   11.1095    1.2290    0.0000 H   0  0  0  0  0  0  0  0  0  0  0  0
   10.6062   -0.3109    0.0000 H   0  0  0  0  0  0  0  0  0  0  0  0
    7.6707   -0.9296    0.0000 H   0  0  0  0  0  0  0  0  0  0  0  0
    4.9684   -1.2114    0.0000 H   0  0  0  0  0  0  0  0  0  0  0  0
    4.3751   -1.7437    0.0000 H   0  0  0  0  0  0  0  0  0  0  0  0
    5.9880   -2.2445    0.0000 H   0  0  0  0  0  0  0  0  0  0  0  0
    6.5812   -1.7122    0.0000 H   0  0  0  0  0  0  0  0  0  0  0  0
    5.8819   -3.5863    0.0000 H   0  0  0  0  0  0  0  0  0  0  0  0
    4.8709   -4.9803    0.0000 H   0  0  0  0  0  0  0  0  0  0  0  0
    2.8660   -1.9663    0.0000 H   0  0  0  0  0  0  0  0  0  0  0  0
    2.8660   -5.2063    0.0000 H   0  0  0  0  0  0  0  0  0  0  0  0
    1.4631   -2.7763    0.0000 H   0  0  0  0  0  0  0  0  0  0  0  0
    1.4631   -4.3963    0.0000 H   0  0  0  0  0  0  0  0  0  0  0  0
  1 20  2  0  0  0  0
  2  5  1  0  0  0  0
  2  6  1  0  0  0  0
  2 10  1  0  0  0  0
  2 29  1  0  0  0  0
  3 14  1  0  0  0  0
  3 20  1  0  0  0  0
  3 48  1  0  0  0  0
  4 23  1  0  0  0  0
  4 24  1  0  0  0  0
  4 54  1  0  0  0  0
  5  8  1  0  0  0  0
  5 32  1  0  0  0  0
  5 33  1  0  0  0  0
  6  7  1  0  0  0  0
  6 30  1  0  0  0  0
  6 31  1  0  0  0  0
  7  9  1  0  0  0  0
  7 34  1  0  0  0  0
  7 35  1  0  0  0  0
  8  9  1  0  0  0  0
  8 36  1  0  0  0  0
  8 37  1  0  0  0  0
  9 38  1  0  0  0  0
  9 39  1  0  0  0  0
 10 11  1  0  0  0  0
 10 40  1  0  0  0  0
 10 41  1  0  0  0  0
 11 12  1  0  0  0  0
 11 13  2  0  0  0  0
 12 14  1  0  0  0  0
 12 15  2  0  0  0  0
 13 16  1  0  0  0  0
 13 42  1  0  0  0  0
 14 43  1  0  0  0  0
 14 44  1  0  0  0  0
 15 17  1  0  0  0  0
 15 45  1  0  0  0  0
 16 17  2  0  0  0  0
 16 46  1  0  0  0  0
 17 47  1  0  0  0  0
 18 19  1  0  0  0  0
 18 21  1  0  0  0  0
 18 49  1  0  0  0  0
 18 50  1  0  0  0  0
 19 20  1  0  0  0  0
 19 51  1  0  0  0  0
 19 52  1  0  0  0  0
 21 22  1  0  0  0  0
 21 24  2  0  0  0  0
 22 23  1  0  0  0  0
 22 25  2  0  0  0  0
 23 26  2  0  0  0  0
 24 53  1  0  0  0  0
 25 27  1  0  0  0  0
 25 55  1  0  0  0  0
 26 28  1  0  0  0  0
 26 56  1  0  0  0  0
 27 28  2  0  0  0  0
 27 57  1  0  0  0  0
 28 58  1  0  0  0  0
M  CHG  1   2   1
M  END
> <PUBCHEM_COMPOUND_CID>
41413038

> <PUBCHEM_COMPOUND_CANONICALIZED>
1

> <PUBCHEM_CACTVS_COMPLEXITY>
490

> <PUBCHEM_CACTVS_HBOND_ACCEPTOR>
1

> <PUBCHEM_CACTVS_HBOND_DONOR>
3

> <PUBCHEM_CACTVS_ROTATABLE_BOND>
7

> <PUBCHEM_CACTVS_SUBSKEYS>
AAADceB7IAAAAAAAAAAAAAAAAAAAAWAAAAA8YIAAAAAAAFgB9AAAHgAQAAAADAjBngQ8wPPJkACoAzV3VACCgCAxAiAI2aE4ZJgIIPLAkZGEIAhglgDIyAcYicCOgAAAAAASAAAAAAAAACQAAAAAAAAAAA==

> <PUBCHEM_IUPAC_OPENEYE_NAME>
3-(1H-indol-3-yl)-N-[[2-(piperidin-1-ium-1-ylmethyl)phenyl]methyl]propanamide

> <PUBCHEM_IUPAC_CAS_NAME>
3-(1H-indol-3-yl)-N-[[2-(1-piperidin-1-iumylmethyl)phenyl]methyl]propanamide

> <PUBCHEM_IUPAC_NAME>
3-(1H-indol-3-yl)-N-[[2-(piperidin-1-ium-1-ylmethyl)phenyl]methyl]propanamide

> <PUBCHEM_IUPAC_SYSTEMATIC_NAME>
3-(1H-indol-3-yl)-N-[[2-(piperidin-1-ium-1-ylmethyl)phenyl]methyl]propanamide

> <PUBCHEM_IUPAC_TRADITIONAL_NAME>
3-(1H-indol-3-yl)-N-[2-(piperidin-1-ium-1-ylmethyl)benzyl]propionamide

> <PUBCHEM_IUPAC_INCHI>
InChI=1S/C24H29N3O/c28-24(13-12-20-17-25-23-11-5-4-10-22(20)23)26-16-19-8-2-3-9-21(19)18-27-14-6-1-7-15-27/h2-5,8-11,17,25H,1,6-7,12-16,18H2,(H,26,28)/p+1

> <PUBCHEM_IUPAC_INCHIKEY>
WVYHQUFUKSQBAZ-UHFFFAOYSA-O

> <PUBCHEM_XLOGP3>
3.7

> <PUBCHEM_EXACT_MASS>
376.238888

> <PUBCHEM_MOLECULAR_FORMULA>
C24H30N3O+

> <PUBCHEM_MOLECULAR_WEIGHT>
376.5145

> <PUBCHEM_OPENEYE_CAN_SMILES>
C1CC[NH+](CC1)CC2=CC=CC=C2CNC(=O)CCC3=CNC4=CC=CC=C43

> <PUBCHEM_OPENEYE_ISO_SMILES>
C1CC[NH+](CC1)CC2=CC=CC=C2CNC(=O)CCC3=CNC4=CC=CC=C43

> <PUBCHEM_CACTVS_TPSA>
49.3

> <PUBCHEM_MONOISOTOPIC_WEIGHT>
376.238888

> <PUBCHEM_TOTAL_CHARGE>
1

> <PUBCHEM_HEAVY_ATOM_COUNT>
28

> <PUBCHEM_ATOM_DEF_STEREO_COUNT>
0

> <PUBCHEM_ATOM_UDEF_STEREO_COUNT>
0

> <PUBCHEM_BOND_DEF_STEREO_COUNT>
0

> <PUBCHEM_BOND_UDEF_STEREO_COUNT>
0

> <PUBCHEM_ISOTOPIC_ATOM_COUNT>
0

> <PUBCHEM_COMPONENT_COUNT>
1

> <PUBCHEM_CACTVS_TAUTO_COUNT>
2

> <PUBCHEM_COORDINATE_TYPE>
1
5
255

> <PUBCHEM_BONDANNOTATIONS>
11  12  8
11  13  8
12  15  8
13  16  8
15  17  8
16  17  8
21  22  8
21  24  8
22  23  8
22  25  8
23  26  8
25  27  8
26  28  8
27  28  8
4  23  8
4  24  8

$$$$
