36304414
  -OEChem-12041211502D

 26 26  0     0  0  0  0  0  0999 V2000
    3.7320    1.0950    0.0000 N   0  3  0  0  0  0  0  0  0  0  0  0
    4.5981    2.5950    0.0000 N   0  0  0  0  0  0  0  0  0  0  0  0
    5.4641    1.0950    0.0000 N   0  0  0  0  0  0  0  0  0  0  0  0
    2.8660   -1.4050    0.0000 C   0  0  0  0  0  0  0  0  0  0  0  0
    3.7320   -1.9050    0.0000 C   0  0  0  0  0  0  0  0  0  0  0  0
    3.7320    0.0950    0.0000 C   0  0  0  0  0  0  0  0  0  0  0  0
    2.8660   -0.4050    0.0000 C   0  0  0  0  0  0  0  0  0  0  0  0
    4.5981   -1.4050    0.0000 C   0  0  0  0  0  0  0  0  0  0  0  0
    4.5981   -0.4050    0.0000 C   0  0  0  0  0  0  0  0  0  0  0  0
    2.0000   -1.9050    0.0000 C   0  0  0  0  0  0  0  0  0  0  0  0
    3.7320   -2.9050    0.0000 C   0  0  0  0  0  0  0  0  0  0  0  0
    4.5981    1.5950    0.0000 C   0  0  0  0  0  0  0  0  0  0  0  0
    2.3291   -0.0950    0.0000 H   0  0  0  0  0  0  0  0  0  0  0  0
    5.1350   -1.7150    0.0000 H   0  0  0  0  0  0  0  0  0  0  0  0
    5.1350   -0.0950    0.0000 H   0  0  0  0  0  0  0  0  0  0  0  0
    1.6900   -1.3681    0.0000 H   0  0  0  0  0  0  0  0  0  0  0  0
    1.4631   -2.2150    0.0000 H   0  0  0  0  0  0  0  0  0  0  0  0
    2.3100   -2.4419    0.0000 H   0  0  0  0  0  0  0  0  0  0  0  0
    3.1120   -2.9050    0.0000 H   0  0  0  0  0  0  0  0  0  0  0  0
    3.7320   -3.5250    0.0000 H   0  0  0  0  0  0  0  0  0  0  0  0
    4.3520   -2.9050    0.0000 H   0  0  0  0  0  0  0  0  0  0  0  0
    3.1951    1.4050    0.0000 H   0  0  0  0  0  0  0  0  0  0  0  0
    5.1350    2.9050    0.0000 H   0  0  0  0  0  0  0  0  0  0  0  0
    4.0611    2.9050    0.0000 H   0  0  0  0  0  0  0  0  0  0  0  0
    6.0010    1.4050    0.0000 H   0  0  0  0  0  0  0  0  0  0  0  0
    5.4641    0.4750    0.0000 H   0  0  0  0  0  0  0  0  0  0  0  0
  1  6  1  0  0  0  0
  1 12  2  0  0  0  0
  1 22  1  0  0  0  0
  2 12  1  0  0  0  0
  2 23  1  0  0  0  0
  2 24  1  0  0  0  0
  3 12  1  0  0  0  0
  3 25  1  0  0  0  0
  3 26  1  0  0  0  0
  4  5  2  0  0  0  0
  4  7  1  0  0  0  0
  4 10  1  0  0  0  0
  5  8  1  0  0  0  0
  5 11  1  0  0  0  0
  6  7  2  0  0  0  0
  6  9  1  0  0  0  0
  7 13  1  0  0  0  0
  8  9  2  0  0  0  0
  8 14  1  0  0  0  0
  9 15  1  0  0  0  0
 10 16  1  0  0  0  0
 10 17  1  0  0  0  0
 10 18  1  0  0  0  0
 11 19  1  0  0  0  0
 11 20  1  0  0  0  0
 11 21  1  0  0  0  0
M  CHG  1   1   1
M  END
> <PUBCHEM_COMPOUND_CID>
36304414

> <PUBCHEM_COMPOUND_CANONICALIZED>
1

> <PUBCHEM_CACTVS_COMPLEXITY>
173

> <PUBCHEM_CACTVS_HBOND_ACCEPTOR>
0

> <PUBCHEM_CACTVS_HBOND_DONOR>
3

> <PUBCHEM_CACTVS_ROTATABLE_BOND>
1

> <PUBCHEM_CACTVS_SUBSKEYS>
AAADccBzAAAAAAAAAAAAAAAAAAAAAAAAAAAwAAAAAAAAAAABAAAAHAAQAAAADAiBGAAzwILAAACgAiRCZACCAAGgAgAIiAAAZIgIICKAkZGAIABgkAAIyAcQgIAOiAAAQAAQAAAQAACAACAAAAAAAAAAAA==

> <PUBCHEM_IUPAC_OPENEYE_NAME>
diaminomethylene-(3,4-dimethylphenyl)ammonium

> <PUBCHEM_IUPAC_CAS_NAME>
diaminomethylidene-(3,4-dimethylphenyl)ammonium

> <PUBCHEM_IUPAC_NAME>
diaminomethylidene-(3,4-dimethylphenyl)azanium

> <PUBCHEM_IUPAC_SYSTEMATIC_NAME>
bis(azanyl)methylidene-(3,4-dimethylphenyl)azanium

> <PUBCHEM_IUPAC_TRADITIONAL_NAME>
diaminomethylene-(3,4-dimethylphenyl)ammonium

> <PUBCHEM_IUPAC_INCHI>
InChI=1S/C9H13N3/c1-6-3-4-8(5-7(6)2)12-9(10)11/h3-5H,1-2H3,(H4,10,11,12)/p+1

> <PUBCHEM_IUPAC_INCHIKEY>
IQTNVAFSMUHIRD-UHFFFAOYSA-O

> <PUBCHEM_XLOGP3>
1.7

> <PUBCHEM_EXACT_MASS>
164.118772

> <PUBCHEM_MOLECULAR_FORMULA>
C9H14N3+

> <PUBCHEM_MOLECULAR_WEIGHT>
164.22756

> <PUBCHEM_OPENEYE_CAN_SMILES>
CC1=C(C=C(C=C1)[NH+]=C(N)N)C

> <PUBCHEM_OPENEYE_ISO_SMILES>
CC1=C(C=C(C=C1)[NH+]=C(N)N)C

> <PUBCHEM_CACTVS_TPSA>
66

> <PUBCHEM_MONOISOTOPIC_WEIGHT>
164.118772

> <PUBCHEM_TOTAL_CHARGE>
1

> <PUBCHEM_HEAVY_ATOM_COUNT>
12

> <PUBCHEM_ATOM_DEF_STEREO_COUNT>
0

> <PUBCHEM_ATOM_UDEF_STEREO_COUNT>
0

> <PUBCHEM_BOND_DEF_STEREO_COUNT>
0

> <PUBCHEM_BOND_UDEF_STEREO_COUNT>
0

> <PUBCHEM_ISOTOPIC_ATOM_COUNT>
0

> <PUBCHEM_COMPONENT_COUNT>
1

> <PUBCHEM_CACTVS_TAUTO_COUNT>
2

> <PUBCHEM_COORDINATE_TYPE>
1
5
255

> <PUBCHEM_BONDANNOTATIONS>
4  5  8
4  7  8
5  8  8
6  7  8
6  9  8
8  9  8

$$$$
36304830
  -OEChem-12041211502D

 31 32  0     0  0  0  0  0  0999 V2000
    4.5981   -1.9050    0.0000 O   0  0  0  0  0  0  0  0  0  0  0  0
    4.5981    2.0950    0.0000 N   0  3  0  0  0  0  0  0  0  0  0  0
    5.4641    3.5950    0.0000 N   0  0  0  0  0  0  0  0  0  0  0  0
    6.3301    2.0950    0.0000 N   0  0  0  0  0  0  0  0  0  0  0  0
    4.5981    1.0950    0.0000 C   0  0  0  0  0  0  0  0  0  0  0  0
    4.5981   -0.9050    0.0000 C   0  0  0  0  0  0  0  0  0  0  0  0
    3.7320    0.5950    0.0000 C   0  0  0  0  0  0  0  0  0  0  0  0
    5.4641    0.5950    0.0000 C   0  0  0  0  0  0  0  0  0  0  0  0
    3.7320   -0.4050    0.0000 C   0  0  0  0  0  0  0  0  0  0  0  0
    5.4641   -0.4050    0.0000 C   0  0  0  0  0  0  0  0  0  0  0  0
    3.7320   -2.4050    0.0000 C   0  0  0  0  0  0  0  0  0  0  0  0
    2.8660   -1.9050    0.0000 C   0  0  0  0  0  0  0  0  0  0  0  0
    3.7320   -3.4050    0.0000 C   0  0  0  0  0  0  0  0  0  0  0  0
    5.4641    2.5950    0.0000 C   0  0  0  0  0  0  0  0  0  0  0  0
    2.0000   -2.4050    0.0000 C   0  0  0  0  0  0  0  0  0  0  0  0
    2.8660   -3.9050    0.0000 C   0  0  0  0  0  0  0  0  0  0  0  0
    2.0000   -3.4050    0.0000 C   0  0  0  0  0  0  0  0  0  0  0  0
    3.1951    0.9050    0.0000 H   0  0  0  0  0  0  0  0  0  0  0  0
    6.0010    0.9050    0.0000 H   0  0  0  0  0  0  0  0  0  0  0  0
    3.1951   -0.7150    0.0000 H   0  0  0  0  0  0  0  0  0  0  0  0
    6.0010   -0.7150    0.0000 H   0  0  0  0  0  0  0  0  0  0  0  0
    4.0611    2.4050    0.0000 H   0  0  0  0  0  0  0  0  0  0  0  0
    2.8660   -1.2850    0.0000 H   0  0  0  0  0  0  0  0  0  0  0  0
    4.2690   -3.7150    0.0000 H   0  0  0  0  0  0  0  0  0  0  0  0
    1.4631   -2.0950    0.0000 H   0  0  0  0  0  0  0  0  0  0  0  0
    2.8660   -4.5250    0.0000 H   0  0  0  0  0  0  0  0  0  0  0  0
    1.4631   -3.7150    0.0000 H   0  0  0  0  0  0  0  0  0  0  0  0
    6.0010    3.9050    0.0000 H   0  0  0  0  0  0  0  0  0  0  0  0
    4.9272    3.9050    0.0000 H   0  0  0  0  0  0  0  0  0  0  0  0
    6.8671    2.4050    0.0000 H   0  0  0  0  0  0  0  0  0  0  0  0
    6.3301    1.4750    0.0000 H   0  0  0  0  0  0  0  0  0  0  0  0
  1  6  1  0  0  0  0
  1 11  1  0  0  0  0
  2  5  1  0  0  0  0
  2 14  2  0  0  0  0
  2 22  1  0  0  0  0
  3 14  1  0  0  0  0
  3 28  1  0  0  0  0
  3 29  1  0  0  0  0
  4 14  1  0  0  0  0
  4 30  1  0  0  0  0
  4 31  1  0  0  0  0
  5  7  2  0  0  0  0
  5  8  1  0  0  0  0
  6  9  2  0  0  0  0
  6 10  1  0  0  0  0
  7  9  1  0  0  0  0
  7 18  1  0  0  0  0
  8 10  2  0  0  0  0
  8 19  1  0  0  0  0
  9 20  1  0  0  0  0
 10 21  1  0  0  0  0
 11 12  2  0  0  0  0
 11 13  1  0  0  0  0
 12 15  1  0  0  0  0
 12 23  1  0  0  0  0
 13 16  2  0  0  0  0
 13 24  1  0  0  0  0
 15 17  2  0  0  0  0
 15 25  1  0  0  0  0
 16 17  1  0  0  0  0
 16 26  1  0  0  0  0
 17 27  1  0  0  0  0
M  CHG  1   2   1
M  END
> <PUBCHEM_COMPOUND_CID>
36304830

> <PUBCHEM_COMPOUND_CANONICALIZED>
1

> <PUBCHEM_CACTVS_COMPLEXITY>
249

> <PUBCHEM_CACTVS_HBOND_ACCEPTOR>
1

> <PUBCHEM_CACTVS_HBOND_DONOR>
3

> <PUBCHEM_CACTVS_ROTATABLE_BOND>
3

> <PUBCHEM_CACTVS_SUBSKEYS>
AAADccBzIAAAAAAAAAAAAAAAAAAAAAAAAAAwYAAAAAAAAAABQAAAHgAQAAAACAyBkAAxxoLABACgACRCZACCCAGgIgAIiAAGbIgMJiKEsZuCOCDk0BEI6AewQAAAAEAAAAAAAAAAgAAAAAAAAAAAAAAAAA==

> <PUBCHEM_IUPAC_OPENEYE_NAME>
diaminomethylene-(4-phenoxyphenyl)ammonium

> <PUBCHEM_IUPAC_CAS_NAME>
diaminomethylidene-(4-phenoxyphenyl)ammonium

> <PUBCHEM_IUPAC_NAME>
diaminomethylidene-(4-phenoxyphenyl)azanium

> <PUBCHEM_IUPAC_SYSTEMATIC_NAME>
bis(azanyl)methylidene-(4-phenoxyphenyl)azanium

> <PUBCHEM_IUPAC_TRADITIONAL_NAME>
diaminomethylene-(4-phenoxyphenyl)ammonium

> <PUBCHEM_IUPAC_INCHI>
InChI=1S/C13H13N3O/c14-13(15)16-10-6-8-12(9-7-10)17-11-4-2-1-3-5-11/h1-9H,(H4,14,15,16)/p+1

> <PUBCHEM_IUPAC_INCHIKEY>
VXVZHNGTRYMNIE-UHFFFAOYSA-O

> <PUBCHEM_XLOGP3>
2.1

> <PUBCHEM_EXACT_MASS>
228.113687

> <PUBCHEM_MOLECULAR_FORMULA>
C13H14N3O+

> <PUBCHEM_MOLECULAR_WEIGHT>
228.26976

> <PUBCHEM_OPENEYE_CAN_SMILES>
C1=CC=C(C=C1)OC2=CC=C(C=C2)[NH+]=C(N)N

> <PUBCHEM_OPENEYE_ISO_SMILES>
C1=CC=C(C=C1)OC2=CC=C(C=C2)[NH+]=C(N)N

> <PUBCHEM_CACTVS_TPSA>
75.2

> <PUBCHEM_MONOISOTOPIC_WEIGHT>
228.113687

> <PUBCHEM_TOTAL_CHARGE>
1

> <PUBCHEM_HEAVY_ATOM_COUNT>
17

> <PUBCHEM_ATOM_DEF_STEREO_COUNT>
0

> <PUBCHEM_ATOM_UDEF_STEREO_COUNT>
0

> <PUBCHEM_BOND_DEF_STEREO_COUNT>
0

> <PUBCHEM_BOND_UDEF_STEREO_COUNT>
0

> <PUBCHEM_ISOTOPIC_ATOM_COUNT>
0

> <PUBCHEM_COMPONENT_COUNT>
1

> <PUBCHEM_CACTVS_TAUTO_COUNT>
2

> <PUBCHEM_COORDINATE_TYPE>
1
5
255

> <PUBCHEM_BONDANNOTATIONS>
11  12  8
11  13  8
12  15  8
13  16  8
15  17  8
16  17  8
5  7  8
5  8  8
6  10  8
6  9  8
7  9  8
8  10  8

$$$$
