43510618
  -OEChem-10201218352D

 23 23  0     0  0  0  0  0  0999 V2000
    2.0000   -0.2694    0.0000 O   0  0  0  0  0  0  0  0  0  0  0  0
    3.7320    0.7306    0.0000 N   0  0  0  0  0  0  0  0  0  0  0  0
    2.8660   -1.7694    0.0000 N   0  0  0  0  0  0  0  0  0  0  0  0
    3.7320   -0.2694    0.0000 C   0  0  0  0  0  0  0  0  0  0  0  0
    2.8660   -0.7694    0.0000 C   0  0  0  0  0  0  0  0  0  0  0  0
    4.5411    1.3184    0.0000 C   0  0  0  0  0  0  0  0  0  0  0  0
    2.9230    1.3184    0.0000 C   0  0  0  0  0  0  0  0  0  0  0  0
    2.0000   -2.2694    0.0000 C   0  0  0  0  0  0  0  0  0  0  0  0
    3.7320   -2.2694    0.0000 C   0  0  0  0  0  0  0  0  0  0  0  0
    4.2320    2.2694    0.0000 C   0  0  0  0  0  0  0  0  0  0  0  0
    3.2320    2.2694    0.0000 C   0  0  0  0  0  0  0  0  0  0  0  0
    3.9441   -0.8520    0.0000 H   0  0  0  0  0  0  0  0  0  0  0  0
    4.3426   -0.1618    0.0000 H   0  0  0  0  0  0  0  0  0  0  0  0
    5.1307    1.1268    0.0000 H   0  0  0  0  0  0  0  0  0  0  0  0
    2.3334    1.1268    0.0000 H   0  0  0  0  0  0  0  0  0  0  0  0
    1.6900   -1.7325    0.0000 H   0  0  0  0  0  0  0  0  0  0  0  0
    3.4220   -2.8064    0.0000 H   0  0  0  0  0  0  0  0  0  0  0  0
    4.2690   -2.5794    0.0000 H   0  0  0  0  0  0  0  0  0  0  0  0
    4.0420   -1.7325    0.0000 H   0  0  0  0  0  0  0  0  0  0  0  0
    1.4631   -2.5794    0.0000 H   0  0  0  0  0  0  0  0  0  0  0  0
    2.3100   -2.8064    0.0000 H   0  0  0  0  0  0  0  0  0  0  0  0
    4.5965    2.7710    0.0000 H   0  0  0  0  0  0  0  0  0  0  0  0
    2.8676    2.7710    0.0000 H   0  0  0  0  0  0  0  0  0  0  0  0
  1  5  2  0  0  0  0
  2  4  1  0  0  0  0
  2  6  1  0  0  0  0
  2  7  1  0  0  0  0
  3  5  1  0  0  0  0
  3  8  1  0  0  0  0
  3  9  1  0  0  0  0
  4  5  1  0  0  0  0
  4 12  1  0  0  0  0
  4 13  1  0  0  0  0
  6 10  2  0  0  0  0
  6 14  1  0  0  0  0
  7 11  2  0  0  0  0
  7 15  1  0  0  0  0
  8 16  1  0  0  0  0
  8 20  1  0  0  0  0
  8 21  1  0  0  0  0
  9 17  1  0  0  0  0
  9 18  1  0  0  0  0
  9 19  1  0  0  0  0
 10 11  1  0  0  0  0
 10 22  1  0  0  0  0
 11 23  1  0  0  0  0
M  END
> <PUBCHEM_COMPOUND_CID>
43510618

> <PUBCHEM_COMPOUND_CANONICALIZED>
1

> <PUBCHEM_CACTVS_COMPLEXITY>
139

> <PUBCHEM_CACTVS_HBOND_ACCEPTOR>
1

> <PUBCHEM_CACTVS_HBOND_DONOR>
0

> <PUBCHEM_CACTVS_ROTATABLE_BOND>
2

> <PUBCHEM_CACTVS_SUBSKEYS>
AAADccBzIAAAAAAAAAAAAAAAAAAAAWAAAAAAAAAAAAAAAAABgAAAHgAAAAAACADBkgQ+gJMMEACoADF3VACCgCAxAiAI2CC4ZJgIYMBAgaEUAAhAAgDAQAAAAAAAAAAAAAAAAAAAAAAAAAAAAAAAAAAAAA==

> <PUBCHEM_IUPAC_OPENEYE_NAME>
N,N-dimethyl-2-pyrrol-1-yl-acetamide

> <PUBCHEM_IUPAC_CAS_NAME>
N,N-dimethyl-2-(1-pyrrolyl)acetamide

> <PUBCHEM_IUPAC_NAME>
N,N-dimethyl-2-pyrrol-1-ylacetamide

> <PUBCHEM_IUPAC_SYSTEMATIC_NAME>
N,N-dimethyl-2-pyrrol-1-yl-ethanamide

> <PUBCHEM_IUPAC_TRADITIONAL_NAME>
N,N-dimethyl-2-pyrrol-1-yl-acetamide

> <PUBCHEM_IUPAC_INCHI>
InChI=1S/C8H12N2O/c1-9(2)8(11)7-10-5-3-4-6-10/h3-6H,7H2,1-2H3

> <PUBCHEM_IUPAC_INCHIKEY>
KAHILVBPKMKZIQ-UHFFFAOYSA-N

> <PUBCHEM_XLOGP3>
0.6

> <PUBCHEM_EXACT_MASS>
152.094963

> <PUBCHEM_MOLECULAR_FORMULA>
C8H12N2O

> <PUBCHEM_MOLECULAR_WEIGHT>
152.19368

> <PUBCHEM_OPENEYE_CAN_SMILES>
CN(C)C(=O)CN1C=CC=C1

> <PUBCHEM_OPENEYE_ISO_SMILES>
CN(C)C(=O)CN1C=CC=C1

> <PUBCHEM_CACTVS_TPSA>
25.2

> <PUBCHEM_MONOISOTOPIC_WEIGHT>
152.094963

> <PUBCHEM_TOTAL_CHARGE>
0

> <PUBCHEM_HEAVY_ATOM_COUNT>
11

> <PUBCHEM_ATOM_DEF_STEREO_COUNT>
0

> <PUBCHEM_ATOM_UDEF_STEREO_COUNT>
0

> <PUBCHEM_BOND_DEF_STEREO_COUNT>
0

> <PUBCHEM_BOND_UDEF_STEREO_COUNT>
0

> <PUBCHEM_ISOTOPIC_ATOM_COUNT>
0

> <PUBCHEM_COMPONENT_COUNT>
1

> <PUBCHEM_CACTVS_TAUTO_COUNT>
1

> <PUBCHEM_COORDINATE_TYPE>
1
5
255

> <PUBCHEM_BONDANNOTATIONS>
10  11  8
2  6  8
2  7  8
6  10  8
7  11  8

$$$$
43510620
  -OEChem-10201218352D

 20 20  0     0  0  0  0  0  0999 V2000
    2.0000   -0.2694    0.0000 O   0  0  0  0  0  0  0  0  0  0  0  0
    3.7320    0.7306    0.0000 N   0  0  0  0  0  0  0  0  0  0  0  0
    2.8660   -1.7694    0.0000 N   0  0  0  0  0  0  0  0  0  0  0  0
    3.7320   -0.2694    0.0000 C   0  0  0  0  0  0  0  0  0  0  0  0
    4.5411    1.3184    0.0000 C   0  0  0  0  0  0  0  0  0  0  0  0
    2.9230    1.3184    0.0000 C   0  0  0  0  0  0  0  0  0  0  0  0
    2.8660   -0.7694    0.0000 C   0  0  0  0  0  0  0  0  0  0  0  0
    4.2320    2.2694    0.0000 C   0  0  0  0  0  0  0  0  0  0  0  0
    3.2320    2.2694    0.0000 C   0  0  0  0  0  0  0  0  0  0  0  0
    2.0000   -2.2694    0.0000 C   0  0  0  0  0  0  0  0  0  0  0  0
    3.9441   -0.8520    0.0000 H   0  0  0  0  0  0  0  0  0  0  0  0
    4.3426   -0.1618    0.0000 H   0  0  0  0  0  0  0  0  0  0  0  0
    5.1307    1.1268    0.0000 H   0  0  0  0  0  0  0  0  0  0  0  0
    2.3334    1.1268    0.0000 H   0  0  0  0  0  0  0  0  0  0  0  0
    4.5965    2.7710    0.0000 H   0  0  0  0  0  0  0  0  0  0  0  0
    2.8676    2.7710    0.0000 H   0  0  0  0  0  0  0  0  0  0  0  0
    3.4030   -2.0794    0.0000 H   0  0  0  0  0  0  0  0  0  0  0  0
    1.6900   -1.7325    0.0000 H   0  0  0  0  0  0  0  0  0  0  0  0
    1.4631   -2.5794    0.0000 H   0  0  0  0  0  0  0  0  0  0  0  0
    2.3100   -2.8064    0.0000 H   0  0  0  0  0  0  0  0  0  0  0  0
  1  7  2  0  0  0  0
  2  4  1  0  0  0  0
  2  5  1  0  0  0  0
  2  6  1  0  0  0  0
  3  7  1  0  0  0  0
  3 10  1  0  0  0  0
  3 17  1  0  0  0  0
  4  7  1  0  0  0  0
  4 11  1  0  0  0  0
  4 12  1  0  0  0  0
  5  8  2  0  0  0  0
  5 13  1  0  0  0  0
  6  9  2  0  0  0  0
  6 14  1  0  0  0  0
  8  9  1  0  0  0  0
  8 15  1  0  0  0  0
  9 16  1  0  0  0  0
 10 18  1  0  0  0  0
 10 19  1  0  0  0  0
 10 20  1  0  0  0  0
M  END
> <PUBCHEM_COMPOUND_CID>
43510620

> <PUBCHEM_COMPOUND_CANONICALIZED>
1

> <PUBCHEM_CACTVS_COMPLEXITY>
119

> <PUBCHEM_CACTVS_HBOND_ACCEPTOR>
1

> <PUBCHEM_CACTVS_HBOND_DONOR>
1

> <PUBCHEM_CACTVS_ROTATABLE_BOND>
2

> <PUBCHEM_CACTVS_SUBSKEYS>
AAADccBjIAAAAAAAAAAAAAAAAAAAAWAAAAAAAAAAAAAAAAABgAAAHgAQAAAACADBkgQ+gJPMEACoADF3VACCgCAxAiAI2KC4ZJgIYMBAgaEUAAhAEgDAQAAAAAAAAAAAAAAAAAAAAAAAAAAAAAAAAAAAAA==

> <PUBCHEM_IUPAC_OPENEYE_NAME>
N-methyl-2-pyrrol-1-yl-acetamide

> <PUBCHEM_IUPAC_CAS_NAME>
N-methyl-2-(1-pyrrolyl)acetamide

> <PUBCHEM_IUPAC_NAME>
N-methyl-2-pyrrol-1-ylacetamide

> <PUBCHEM_IUPAC_SYSTEMATIC_NAME>
N-methyl-2-pyrrol-1-yl-ethanamide

> <PUBCHEM_IUPAC_TRADITIONAL_NAME>
N-methyl-2-pyrrol-1-yl-acetamide

> <PUBCHEM_IUPAC_INCHI>
InChI=1S/C7H10N2O/c1-8-7(10)6-9-4-2-3-5-9/h2-5H,6H2,1H3,(H,8,10)

> <PUBCHEM_IUPAC_INCHIKEY>
KABLNBZXCQPVMP-UHFFFAOYSA-N

> <PUBCHEM_XLOGP3>
0.5

> <PUBCHEM_EXACT_MASS>
138.079313

> <PUBCHEM_MOLECULAR_FORMULA>
C7H10N2O

> <PUBCHEM_MOLECULAR_WEIGHT>
138.1671

> <PUBCHEM_OPENEYE_CAN_SMILES>
CNC(=O)CN1C=CC=C1

> <PUBCHEM_OPENEYE_ISO_SMILES>
CNC(=O)CN1C=CC=C1

> <PUBCHEM_CACTVS_TPSA>
34

> <PUBCHEM_MONOISOTOPIC_WEIGHT>
138.079313

> <PUBCHEM_TOTAL_CHARGE>
0

> <PUBCHEM_HEAVY_ATOM_COUNT>
10

> <PUBCHEM_ATOM_DEF_STEREO_COUNT>
0

> <PUBCHEM_ATOM_UDEF_STEREO_COUNT>
0

> <PUBCHEM_BOND_DEF_STEREO_COUNT>
0

> <PUBCHEM_BOND_UDEF_STEREO_COUNT>
0

> <PUBCHEM_ISOTOPIC_ATOM_COUNT>
0

> <PUBCHEM_COMPONENT_COUNT>
1

> <PUBCHEM_CACTVS_TAUTO_COUNT>
2

> <PUBCHEM_COORDINATE_TYPE>
1
5
255

> <PUBCHEM_BONDANNOTATIONS>
2  5  8
2  6  8
5  8  8
6  9  8
8  9  8

$$$$
43510633
  -OEChem-10201218352D

 25 27  0     0  0  0  0  0  0999 V2000
    2.8660   -0.7479    0.0000 N   0  0  0  0  0  0  0  0  0  0  0  0
    4.6260    0.2174    0.0000 N   0  0  0  0  0  0  0  0  0  0  0  0
    2.8660    0.2521    0.0000 C   0  0  0  0  0  0  0  0  0  0  0  0
    3.7320    0.7521    0.0000 C   0  0  0  0  0  0  0  0  0  0  0  0
    3.7320    1.7521    0.0000 C   0  0  0  0  0  0  0  0  0  0  0  0
    2.0000    0.7521    0.0000 C   0  0  0  0  0  0  0  0  0  0  0  0
    2.8660    2.2521    0.0000 C   0  0  0  0  0  0  0  0  0  0  0  0
    2.0570   -1.3357    0.0000 C   0  0  0  0  0  0  0  0  0  0  0  0
    3.6750   -1.3357    0.0000 C   0  0  0  0  0  0  0  0  0  0  0  0
    2.0000    1.7521    0.0000 C   0  0  0  0  0  0  0  0  0  0  0  0
    4.6260    2.2868    0.0000 C   0  0  0  0  0  0  0  0  0  0  0  0
    3.3660   -2.2868    0.0000 C   0  0  0  0  0  0  0  0  0  0  0  0
    2.3660   -2.2868    0.0000 C   0  0  0  0  0  0  0  0  0  0  0  0
    5.5321    1.7729    0.0000 C   0  0  0  0  0  0  0  0  0  0  0  0
    5.5321    0.7313    0.0000 C   0  0  0  0  0  0  0  0  0  0  0  0
    1.4631    0.4421    0.0000 H   0  0  0  0  0  0  0  0  0  0  0  0
    2.8660    2.8721    0.0000 H   0  0  0  0  0  0  0  0  0  0  0  0
    1.4674   -1.1441    0.0000 H   0  0  0  0  0  0  0  0  0  0  0  0
    4.2647   -1.1441    0.0000 H   0  0  0  0  0  0  0  0  0  0  0  0
    1.4631    2.0621    0.0000 H   0  0  0  0  0  0  0  0  0  0  0  0
    4.6188    2.9067    0.0000 H   0  0  0  0  0  0  0  0  0  0  0  0
    2.0016   -2.7883    0.0000 H   0  0  0  0  0  0  0  0  0  0  0  0
    3.7304   -2.7883    0.0000 H   0  0  0  0  0  0  0  0  0  0  0  0
    6.0678    2.0850    0.0000 H   0  0  0  0  0  0  0  0  0  0  0  0
    6.0678    0.4192    0.0000 H   0  0  0  0  0  0  0  0  0  0  0  0
  1  3  1  0  0  0  0
  1  8  1  0  0  0  0
  1  9  1  0  0  0  0
  2  4  1  0  0  0  0
  2 15  2  0  0  0  0
  3  4  1  0  0  0  0
  3  6  2  0  0  0  0
  4  5  2  0  0  0  0
  5  7  1  0  0  0  0
  5 11  1  0  0  0  0
  6 10  1  0  0  0  0
  6 16  1  0  0  0  0
  7 10  2  0  0  0  0
  7 17  1  0  0  0  0
  8 13  2  0  0  0  0
  8 18  1  0  0  0  0
  9 12  2  0  0  0  0
  9 19  1  0  0  0  0
 10 20  1  0  0  0  0
 11 14  2  0  0  0  0
 11 21  1  0  0  0  0
 12 13  1  0  0  0  0
 12 23  1  0  0  0  0
 13 22  1  0  0  0  0
 14 15  1  0  0  0  0
 14 24  1  0  0  0  0
 15 25  1  0  0  0  0
M  END
> <PUBCHEM_COMPOUND_CID>
43510633

> <PUBCHEM_COMPOUND_CANONICALIZED>
1

> <PUBCHEM_CACTVS_COMPLEXITY>
211

> <PUBCHEM_CACTVS_HBOND_ACCEPTOR>
1

> <PUBCHEM_CACTVS_HBOND_DONOR>
0

> <PUBCHEM_CACTVS_ROTATABLE_BOND>
1

> <PUBCHEM_CACTVS_SUBSKEYS>
AAADccBzAAAAAAAAAAAAAAAAAAAAAWAAAAA8QAAAAAAAAACx/AAAHAAAAAAADAjBHgQ8wPMMEACgAzRnRACCgCAxEiAI2CA4dJgIYOLAkZGUIAhggADIyAcQgIAOAAAAQAACACAAAACAAAQAQAAAAAAAAA==

> <PUBCHEM_IUPAC_OPENEYE_NAME>
8-pyrrol-1-ylquinoline

> <PUBCHEM_IUPAC_CAS_NAME>
8-(1-pyrrolyl)quinoline

> <PUBCHEM_IUPAC_NAME>
8-pyrrol-1-ylquinoline

> <PUBCHEM_IUPAC_SYSTEMATIC_NAME>
8-pyrrol-1-ylquinoline

> <PUBCHEM_IUPAC_TRADITIONAL_NAME>
8-pyrrol-1-ylquinoline

> <PUBCHEM_IUPAC_INCHI>
InChI=1S/C13H10N2/c1-2-10-15(9-1)12-7-3-5-11-6-4-8-14-13(11)12/h1-10H

> <PUBCHEM_IUPAC_INCHIKEY>
LMXCXLRNKHOXFS-UHFFFAOYSA-N

> <PUBCHEM_XLOGP3>
2.2

> <PUBCHEM_EXACT_MASS>
194.084398

> <PUBCHEM_MOLECULAR_FORMULA>
C13H10N2

> <PUBCHEM_MOLECULAR_WEIGHT>
194.2319

> <PUBCHEM_OPENEYE_CAN_SMILES>
C1=CN(C=C1)C2=CC=CC3=C2N=CC=C3

> <PUBCHEM_OPENEYE_ISO_SMILES>
C1=CN(C=C1)C2=CC=CC3=C2N=CC=C3

> <PUBCHEM_CACTVS_TPSA>
17.8

> <PUBCHEM_MONOISOTOPIC_WEIGHT>
194.084398

> <PUBCHEM_TOTAL_CHARGE>
0

> <PUBCHEM_HEAVY_ATOM_COUNT>
15

> <PUBCHEM_ATOM_DEF_STEREO_COUNT>
0

> <PUBCHEM_ATOM_UDEF_STEREO_COUNT>
0

> <PUBCHEM_BOND_DEF_STEREO_COUNT>
0

> <PUBCHEM_BOND_UDEF_STEREO_COUNT>
0

> <PUBCHEM_ISOTOPIC_ATOM_COUNT>
0

> <PUBCHEM_COMPONENT_COUNT>
1

> <PUBCHEM_CACTVS_TAUTO_COUNT>
1

> <PUBCHEM_COORDINATE_TYPE>
1
5
255

> <PUBCHEM_BONDANNOTATIONS>
1  8  8
1  9  8
11  14  8
12  13  8
14  15  8
2  15  8
2  4  8
3  4  8
3  6  8
4  5  8
5  11  8
5  7  8
6  10  8
7  10  8
8  13  8
9  12  8

$$$$
43510658
  -OEChem-10201218352D

 30 31  0     0  0  0  0  0  0999 V2000
    3.7320   -2.0194    0.0000 O   0  0  0  0  0  0  0  0  0  0  0  0
    3.7320    1.9806    0.0000 N   0  0  0  0  0  0  0  0  0  0  0  0
    2.8660   -2.5194    0.0000 C   0  0  0  0  0  0  0  0  0  0  0  0
    3.7320    0.9806    0.0000 C   0  0  0  0  0  0  0  0  0  0  0  0
    3.7320   -1.0194    0.0000 C   0  0  0  0  0  0  0  0  0  0  0  0
    2.8660    0.4806    0.0000 C   0  0  0  0  0  0  0  0  0  0  0  0
    4.5981    0.4806    0.0000 C   0  0  0  0  0  0  0  0  0  0  0  0
    2.8660   -0.5194    0.0000 C   0  0  0  0  0  0  0  0  0  0  0  0
    4.5981   -0.5194    0.0000 C   0  0  0  0  0  0  0  0  0  0  0  0
    2.8660   -3.5194    0.0000 C   0  0  0  0  0  0  0  0  0  0  0  0
    2.0000   -2.0194    0.0000 C   0  0  0  0  0  0  0  0  0  0  0  0
    4.5411    2.5684    0.0000 C   0  0  0  0  0  0  0  0  0  0  0  0
    2.9230    2.5684    0.0000 C   0  0  0  0  0  0  0  0  0  0  0  0
    4.2320    3.5194    0.0000 C   0  0  0  0  0  0  0  0  0  0  0  0
    3.2320    3.5194    0.0000 C   0  0  0  0  0  0  0  0  0  0  0  0
    2.8660   -1.8994    0.0000 H   0  0  0  0  0  0  0  0  0  0  0  0
    2.3291    0.7906    0.0000 H   0  0  0  0  0  0  0  0  0  0  0  0
    5.1350    0.7906    0.0000 H   0  0  0  0  0  0  0  0  0  0  0  0
    2.3291   -0.8294    0.0000 H   0  0  0  0  0  0  0  0  0  0  0  0
    5.1350   -0.8294    0.0000 H   0  0  0  0  0  0  0  0  0  0  0  0
    2.2460   -3.5194    0.0000 H   0  0  0  0  0  0  0  0  0  0  0  0
    2.8660   -4.1394    0.0000 H   0  0  0  0  0  0  0  0  0  0  0  0
    2.3100   -1.4825    0.0000 H   0  0  0  0  0  0  0  0  0  0  0  0
    1.4631   -1.7094    0.0000 H   0  0  0  0  0  0  0  0  0  0  0  0
    1.6900   -2.5564    0.0000 H   0  0  0  0  0  0  0  0  0  0  0  0
    3.4860   -3.5194    0.0000 H   0  0  0  0  0  0  0  0  0  0  0  0
    5.1307    2.3768    0.0000 H   0  0  0  0  0  0  0  0  0  0  0  0
    2.3334    2.3768    0.0000 H   0  0  0  0  0  0  0  0  0  0  0  0
    4.5965    4.0210    0.0000 H   0  0  0  0  0  0  0  0  0  0  0  0
    2.8676    4.0210    0.0000 H   0  0  0  0  0  0  0  0  0  0  0  0
  1  3  1  0  0  0  0
  1  5  1  0  0  0  0
  2  4  1  0  0  0  0
  2 12  1  0  0  0  0
  2 13  1  0  0  0  0
  3 10  1  0  0  0  0
  3 11  1  0  0  0  0
  3 16  1  0  0  0  0
  4  6  2  0  0  0  0
  4  7  1  0  0  0  0
  5  8  2  0  0  0  0
  5  9  1  0  0  0  0
  6  8  1  0  0  0  0
  6 17  1  0  0  0  0
  7  9  2  0  0  0  0
  7 18  1  0  0  0  0
  8 19  1  0  0  0  0
  9 20  1  0  0  0  0
 10 21  1  0  0  0  0
 10 22  1  0  0  0  0
 10 26  1  0  0  0  0
 11 23  1  0  0  0  0
 11 24  1  0  0  0  0
 11 25  1  0  0  0  0
 12 14  2  0  0  0  0
 12 27  1  0  0  0  0
 13 15  2  0  0  0  0
 13 28  1  0  0  0  0
 14 15  1  0  0  0  0
 14 29  1  0  0  0  0
 15 30  1  0  0  0  0
M  END
> <PUBCHEM_COMPOUND_CID>
43510658

> <PUBCHEM_COMPOUND_CANONICALIZED>
1

> <PUBCHEM_CACTVS_COMPLEXITY>
179

> <PUBCHEM_CACTVS_HBOND_ACCEPTOR>
1

> <PUBCHEM_CACTVS_HBOND_DONOR>
0

> <PUBCHEM_CACTVS_ROTATABLE_BOND>
3

> <PUBCHEM_CACTVS_SUBSKEYS>
AAADccByIAAAAAAAAAAAAAAAAAAAAWAAAAAwAAAAAAAAAAABwAAAHgAAAAAACBzhkgY+xpMMFACgADRnRACCiCAxIiAI2CA+bJgMJuLEsZuGOCjkwBHI6AewQAAAAEAAAAAAAAAAgAAAAAAAAAAAAAAAAA==

> <PUBCHEM_IUPAC_OPENEYE_NAME>
1-(4-isopropoxyphenyl)pyrrole

> <PUBCHEM_IUPAC_CAS_NAME>
1-(4-propan-2-yloxyphenyl)pyrrole

> <PUBCHEM_IUPAC_NAME>
1-(4-propan-2-yloxyphenyl)pyrrole

> <PUBCHEM_IUPAC_SYSTEMATIC_NAME>
1-(4-propan-2-yloxyphenyl)pyrrole

> <PUBCHEM_IUPAC_TRADITIONAL_NAME>
1-(4-isopropoxyphenyl)pyrrole

> <PUBCHEM_IUPAC_INCHI>
InChI=1S/C13H15NO/c1-11(2)15-13-7-5-12(6-8-13)14-9-3-4-10-14/h3-11H,1-2H3

> <PUBCHEM_IUPAC_INCHIKEY>
NFBTUBWVMVPZJW-UHFFFAOYSA-N

> <PUBCHEM_XLOGP3>
3.9

> <PUBCHEM_EXACT_MASS>
201.115364

> <PUBCHEM_MOLECULAR_FORMULA>
C13H15NO

> <PUBCHEM_MOLECULAR_WEIGHT>
201.2643

> <PUBCHEM_OPENEYE_CAN_SMILES>
CC(C)OC1=CC=C(C=C1)N2C=CC=C2

> <PUBCHEM_OPENEYE_ISO_SMILES>
CC(C)OC1=CC=C(C=C1)N2C=CC=C2

> <PUBCHEM_CACTVS_TPSA>
14.2

> <PUBCHEM_MONOISOTOPIC_WEIGHT>
201.115364

> <PUBCHEM_TOTAL_CHARGE>
0

> <PUBCHEM_HEAVY_ATOM_COUNT>
15

> <PUBCHEM_ATOM_DEF_STEREO_COUNT>
0

> <PUBCHEM_ATOM_UDEF_STEREO_COUNT>
0

> <PUBCHEM_BOND_DEF_STEREO_COUNT>
0

> <PUBCHEM_BOND_UDEF_STEREO_COUNT>
0

> <PUBCHEM_ISOTOPIC_ATOM_COUNT>
0

> <PUBCHEM_COMPONENT_COUNT>
1

> <PUBCHEM_CACTVS_TAUTO_COUNT>
1

> <PUBCHEM_COORDINATE_TYPE>
1
5
255

> <PUBCHEM_BONDANNOTATIONS>
12  14  8
13  15  8
14  15  8
2  12  8
2  13  8
4  6  8
4  7  8
5  8  8
5  9  8
6  8  8
7  9  8

$$$$
43510660
  -OEChem-10201218352D

 23 24  0     0  0  0  0  0  0999 V2000
    2.0000   -2.3512    0.0000 F   0  0  0  0  0  0  0  0  0  0  0  0
    4.5981    1.1488    0.0000 N   0  0  0  0  0  0  0  0  0  0  0  0
    3.7320    0.6488    0.0000 C   0  0  0  0  0  0  0  0  0  0  0  0
    3.7320   -0.3512    0.0000 C   0  0  0  0  0  0  0  0  0  0  0  0
    5.5116    0.7420    0.0000 C   0  0  0  0  0  0  0  0  0  0  0  0
    4.7026    2.1433    0.0000 C   0  0  0  0  0  0  0  0  0  0  0  0
    2.8660   -0.8512    0.0000 C   0  0  0  0  0  0  0  0  0  0  0  0
    4.5981   -0.8512    0.0000 C   0  0  0  0  0  0  0  0  0  0  0  0
    5.6808    2.3512    0.0000 C   0  0  0  0  0  0  0  0  0  0  0  0
    6.1808    1.4852    0.0000 C   0  0  0  0  0  0  0  0  0  0  0  0
    2.8660   -1.8512    0.0000 C   0  0  0  0  0  0  0  0  0  0  0  0
    4.5981   -1.8512    0.0000 C   0  0  0  0  0  0  0  0  0  0  0  0
    3.7320   -2.3512    0.0000 C   0  0  0  0  0  0  0  0  0  0  0  0
    3.5200    1.2314    0.0000 H   0  0  0  0  0  0  0  0  0  0  0  0
    3.1215    0.5411    0.0000 H   0  0  0  0  0  0  0  0  0  0  0  0
    5.6405    0.1356    0.0000 H   0  0  0  0  0  0  0  0  0  0  0  0
    4.2419    2.5582    0.0000 H   0  0  0  0  0  0  0  0  0  0  0  0
    2.3291   -0.5412    0.0000 H   0  0  0  0  0  0  0  0  0  0  0  0
    5.1350   -0.5412    0.0000 H   0  0  0  0  0  0  0  0  0  0  0  0
    6.7974    1.4204    0.0000 H   0  0  0  0  0  0  0  0  0  0  0  0
    5.9329    2.9176    0.0000 H   0  0  0  0  0  0  0  0  0  0  0  0
    5.1350   -2.1612    0.0000 H   0  0  0  0  0  0  0  0  0  0  0  0
    3.7320   -2.9712    0.0000 H   0  0  0  0  0  0  0  0  0  0  0  0
  1 11  1  0  0  0  0
  2  3  1  0  0  0  0
  2  5  1  0  0  0  0
  2  6  1  0  0  0  0
  3  4  1  0  0  0  0
  3 14  1  0  0  0  0
  3 15  1  0  0  0  0
  4  7  2  0  0  0  0
  4  8  1  0  0  0  0
  5 10  2  0  0  0  0
  5 16  1  0  0  0  0
  6  9  2  0  0  0  0
  6 17  1  0  0  0  0
  7 11  1  0  0  0  0
  7 18  1  0  0  0  0
  8 12  2  0  0  0  0
  8 19  1  0  0  0  0
  9 10  1  0  0  0  0
  9 21  1  0  0  0  0
 10 20  1  0  0  0  0
 11 13  2  0  0  0  0
 12 13  1  0  0  0  0
 12 22  1  0  0  0  0
 13 23  1  0  0  0  0
M  END
> <PUBCHEM_COMPOUND_CID>
43510660

> <PUBCHEM_COMPOUND_CANONICALIZED>
1

> <PUBCHEM_CACTVS_COMPLEXITY>
154

> <PUBCHEM_CACTVS_HBOND_ACCEPTOR>
1

> <PUBCHEM_CACTVS_HBOND_DONOR>
0

> <PUBCHEM_CACTVS_ROTATABLE_BOND>
2

> <PUBCHEM_CACTVS_SUBSKEYS>
AAADccByAQAAAAAAAAAAAAAAAAAAAWAAAAAwAAAAAAAAAAABwAAAHQAAAAAADADBGgw8gJMMEACgAjBnRACCgCAxAiAI2CA4ZJgIIOLAkZGEIAhggADIyAcQgAAOAAAAAAAAAAAAAAAAAAAAAAAAAAAAAA==

> <PUBCHEM_IUPAC_OPENEYE_NAME>
1-[(3-fluorophenyl)methyl]pyrrole

> <PUBCHEM_IUPAC_CAS_NAME>
1-[(3-fluorophenyl)methyl]pyrrole

> <PUBCHEM_IUPAC_NAME>
1-[(3-fluorophenyl)methyl]pyrrole

> <PUBCHEM_IUPAC_SYSTEMATIC_NAME>
1-[(3-fluorophenyl)methyl]pyrrole

> <PUBCHEM_IUPAC_TRADITIONAL_NAME>
1-(3-fluorobenzyl)pyrrole

> <PUBCHEM_IUPAC_INCHI>
InChI=1S/C11H10FN/c12-11-5-3-4-10(8-11)9-13-6-1-2-7-13/h1-8H,9H2

> <PUBCHEM_IUPAC_INCHIKEY>
LMSUQHQGEJCEHN-UHFFFAOYSA-N

> <PUBCHEM_XLOGP3>
2.7

> <PUBCHEM_EXACT_MASS>
175.079728

> <PUBCHEM_MOLECULAR_FORMULA>
C11H10FN

> <PUBCHEM_MOLECULAR_WEIGHT>
175.202203

> <PUBCHEM_OPENEYE_CAN_SMILES>
C1=CN(C=C1)CC2=CC(=CC=C2)F

> <PUBCHEM_OPENEYE_ISO_SMILES>
C1=CN(C=C1)CC2=CC(=CC=C2)F

> <PUBCHEM_CACTVS_TPSA>
4.9

> <PUBCHEM_MONOISOTOPIC_WEIGHT>
175.079728

> <PUBCHEM_TOTAL_CHARGE>
0

> <PUBCHEM_HEAVY_ATOM_COUNT>
13

> <PUBCHEM_ATOM_DEF_STEREO_COUNT>
0

> <PUBCHEM_ATOM_UDEF_STEREO_COUNT>
0

> <PUBCHEM_BOND_DEF_STEREO_COUNT>
0

> <PUBCHEM_BOND_UDEF_STEREO_COUNT>
0

> <PUBCHEM_ISOTOPIC_ATOM_COUNT>
0

> <PUBCHEM_COMPONENT_COUNT>
1

> <PUBCHEM_CACTVS_TAUTO_COUNT>
1

> <PUBCHEM_COORDINATE_TYPE>
1
5
255

> <PUBCHEM_BONDANNOTATIONS>
11  13  8
12  13  8
2  5  8
2  6  8
4  7  8
4  8  8
5  10  8
6  9  8
7  11  8
8  12  8
9  10  8

$$$$
43512881
  -OEChem-10201218352D

 41 44  0     0  0  0  0  0  0999 V2000
    6.2781    1.3136    0.0000 N   0  0  0  0  0  0  0  0  0  0  0  0
    4.6783   -2.4031    0.0000 N   0  0  0  0  0  0  0  0  0  0  0  0
    7.2566    1.5198    0.0000 C   0  0  0  0  0  0  0  0  0  0  0  0
    7.9936    0.8528    0.0000 C   0  0  0  0  0  0  0  0  0  0  0  0
    7.6617    2.4276    0.0000 C   0  0  0  0  0  0  0  0  0  0  0  0
    8.6504    2.3246    0.0000 C   0  0  0  0  0  0  0  0  0  0  0  0
    8.8567    1.3461    0.0000 C   0  0  0  0  0  0  0  0  0  0  0  0
    5.9674    0.3631    0.0000 C   0  0  0  0  0  0  0  0  0  0  0  0
    4.9889    0.1569    0.0000 C   0  0  0  0  0  0  0  0  0  0  0  0
    9.8072    1.0354    0.0000 C   0  0  0  0  0  0  0  0  0  0  0  0
    9.3948    2.9924    0.0000 C   0  0  0  0  0  0  0  0  0  0  0  0
    4.6783   -0.7936    0.0000 C   0  0  0  0  0  0  0  0  0  0  0  0
    3.7320   -1.0984    0.0000 C   0  0  0  0  0  0  0  0  0  0  0  0
   10.5515    1.7032    0.0000 C   0  0  0  0  0  0  0  0  0  0  0  0
   10.3453    2.6818    0.0000 C   0  0  0  0  0  0  0  0  0  0  0  0
    3.7320   -2.0984    0.0000 C   0  0  0  0  0  0  0  0  0  0  0  0
    5.2619   -1.5984    0.0000 C   0  0  0  0  0  0  0  0  0  0  0  0
    2.8660   -0.5984    0.0000 C   0  0  0  0  0  0  0  0  0  0  0  0
    2.8660   -2.5984    0.0000 C   0  0  0  0  0  0  0  0  0  0  0  0
    2.0000   -1.0984    0.0000 C   0  0  0  0  0  0  0  0  0  0  0  0
    2.0000   -2.0984    0.0000 C   0  0  0  0  0  0  0  0  0  0  0  0
    6.8670    2.0022    0.0000 H   0  0  0  0  0  0  0  0  0  0  0  0
    7.5316    0.4394    0.0000 H   0  0  0  0  0  0  0  0  0  0  0  0
    8.3562    0.3498    0.0000 H   0  0  0  0  0  0  0  0  0  0  0  0
    7.7904    3.0341    0.0000 H   0  0  0  0  0  0  0  0  0  0  0  0
    7.0721    2.6194    0.0000 H   0  0  0  0  0  0  0  0  0  0  0  0
    5.8640    1.7751    0.0000 H   0  0  0  0  0  0  0  0  0  0  0  0
    5.9880   -0.2566    0.0000 H   0  0  0  0  0  0  0  0  0  0  0  0
    6.5812    0.2758    0.0000 H   0  0  0  0  0  0  0  0  0  0  0  0
    4.9684    0.7765    0.0000 H   0  0  0  0  0  0  0  0  0  0  0  0
    4.3751    0.2442    0.0000 H   0  0  0  0  0  0  0  0  0  0  0  0
    9.9350    0.4287    0.0000 H   0  0  0  0  0  0  0  0  0  0  0  0
    9.2669    3.5991    0.0000 H   0  0  0  0  0  0  0  0  0  0  0  0
   10.8067    3.0958    0.0000 H   0  0  0  0  0  0  0  0  0  0  0  0
   11.1408    1.5106    0.0000 H   0  0  0  0  0  0  0  0  0  0  0  0
    5.8819   -1.5984    0.0000 H   0  0  0  0  0  0  0  0  0  0  0  0
    4.8709   -2.9924    0.0000 H   0  0  0  0  0  0  0  0  0  0  0  0
    2.8660    0.0216    0.0000 H   0  0  0  0  0  0  0  0  0  0  0  0
    2.8660   -3.2184    0.0000 H   0  0  0  0  0  0  0  0  0  0  0  0
    1.4631   -0.7884    0.0000 H   0  0  0  0  0  0  0  0  0  0  0  0
    1.4631   -2.4084    0.0000 H   0  0  0  0  0  0  0  0  0  0  0  0
  1  3  1  0  0  0  0
  1  8  1  0  0  0  0
  1 27  1  0  0  0  0
  2 16  1  0  0  0  0
  2 17  1  0  0  0  0
  2 37  1  0  0  0  0
  3  4  1  0  0  0  0
  3  5  1  0  0  0  0
  3 22  1  0  0  0  0
  4  7  1  0  0  0  0
  4 23  1  0  0  0  0
  4 24  1  0  0  0  0
  5  6  1  0  0  0  0
  5 25  1  0  0  0  0
  5 26  1  0  0  0  0
  6  7  1  0  0  0  0
  6 11  2  0  0  0  0
  7 10  2  0  0  0  0
  8  9  1  0  0  0  0
  8 28  1  0  0  0  0
  8 29  1  0  0  0  0
  9 12  1  0  0  0  0
  9 30  1  0  0  0  0
  9 31  1  0  0  0  0
 10 14  1  0  0  0  0
 10 32  1  0  0  0  0
 11 15  1  0  0  0  0
 11 33  1  0  0  0  0
 12 13  1  0  0  0  0
 12 17  2  0  0  0  0
 13 16  1  0  0  0  0
 13 18  2  0  0  0  0
 14 15  2  0  0  0  0
 14 35  1  0  0  0  0
 15 34  1  0  0  0  0
 16 19  2  0  0  0  0
 17 36  1  0  0  0  0
 18 20  1  0  0  0  0
 18 38  1  0  0  0  0
 19 21  1  0  0  0  0
 19 39  1  0  0  0  0
 20 21  2  0  0  0  0
 20 40  1  0  0  0  0
 21 41  1  0  0  0  0
M  END
> <PUBCHEM_COMPOUND_CID>
43512881

> <PUBCHEM_COMPOUND_CANONICALIZED>
1

> <PUBCHEM_CACTVS_COMPLEXITY>
329

> <PUBCHEM_CACTVS_HBOND_ACCEPTOR>
1

> <PUBCHEM_CACTVS_HBOND_DONOR>
2

> <PUBCHEM_CACTVS_ROTATABLE_BOND>
4

> <PUBCHEM_CACTVS_SUBSKEYS>
AAADceB7AAAAAAAAAAAAAAAAAAAAAeIAAAAwYAAAAAAAAHgB9AAAHAAQAAAADCjBHgQ8wPLJkACgAzRnRACCgCAxAiAI2aA4ZJgIIOLAkZGEIAhgkADIyAcQgMAOgAAAAAASAAAAAAAAACQAACAACAAAAA==

> <PUBCHEM_IUPAC_OPENEYE_NAME>
N-[2-(1H-indol-3-yl)ethyl]indan-2-amine

> <PUBCHEM_IUPAC_CAS_NAME>
N-[2-(1H-indol-3-yl)ethyl]-2,3-dihydro-1H-inden-2-amine

> <PUBCHEM_IUPAC_NAME>
N-[2-(1H-indol-3-yl)ethyl]-2,3-dihydro-1H-inden-2-amine

> <PUBCHEM_IUPAC_SYSTEMATIC_NAME>
N-[2-(1H-indol-3-yl)ethyl]-2,3-dihydro-1H-inden-2-amine

> <PUBCHEM_IUPAC_TRADITIONAL_NAME>
indan-2-yl-[2-(1H-indol-3-yl)ethyl]amine

> <PUBCHEM_IUPAC_INCHI>
InChI=1S/C19H20N2/c1-2-6-15-12-17(11-14(15)5-1)20-10-9-16-13-21-19-8-4-3-7-18(16)19/h1-8,13,17,20-21H,9-12H2

> <PUBCHEM_IUPAC_INCHIKEY>
NBHICLNXEUNQJW-UHFFFAOYSA-N

> <PUBCHEM_XLOGP3>
4.1

> <PUBCHEM_EXACT_MASS>
276.162649

> <PUBCHEM_MOLECULAR_FORMULA>
C19H20N2

> <PUBCHEM_MOLECULAR_WEIGHT>
276.3755

> <PUBCHEM_OPENEYE_CAN_SMILES>
C1C(CC2=CC=CC=C21)NCCC3=CNC4=CC=CC=C43

> <PUBCHEM_OPENEYE_ISO_SMILES>
C1C(CC2=CC=CC=C21)NCCC3=CNC4=CC=CC=C43

> <PUBCHEM_CACTVS_TPSA>
27.8

> <PUBCHEM_MONOISOTOPIC_WEIGHT>
276.162649

> <PUBCHEM_TOTAL_CHARGE>
0

> <PUBCHEM_HEAVY_ATOM_COUNT>
21

> <PUBCHEM_ATOM_DEF_STEREO_COUNT>
0

> <PUBCHEM_ATOM_UDEF_STEREO_COUNT>
0

> <PUBCHEM_BOND_DEF_STEREO_COUNT>
0

> <PUBCHEM_BOND_UDEF_STEREO_COUNT>
0

> <PUBCHEM_ISOTOPIC_ATOM_COUNT>
0

> <PUBCHEM_COMPONENT_COUNT>
1

> <PUBCHEM_CACTVS_TAUTO_COUNT>
1

> <PUBCHEM_COORDINATE_TYPE>
1
5
255

> <PUBCHEM_BONDANNOTATIONS>
10  14  8
11  15  8
12  13  8
12  17  8
13  16  8
13  18  8
14  15  8
16  19  8
18  20  8
19  21  8
2  16  8
2  17  8
20  21  8
6  11  8
6  7  8
7  10  8

$$$$
43519120
  -OEChem-10201218352D

 25 26  0     0  0  0  0  0  0999 V2000
    2.0000   -0.5000    0.0000 Br  0  0  0  0  0  0  0  0  0  0  0  0
    4.5981   -1.0000    0.0000 S   0  0  0  0  0  0  0  0  0  0  0  0
    7.1962   -0.5000    0.0000 C   0  0  0  0  0  0  0  0  0  0  0  0
    7.1962    0.5000    0.0000 C   0  0  0  0  0  0  0  0  0  0  0  0
    6.3301   -1.0000    0.0000 C   0  0  0  0  0  0  0  0  0  0  0  0
    5.4641   -0.5000    0.0000 C   0  0  0  0  0  0  0  0  0  0  0  0
    6.3301    1.0000    0.0000 C   0  0  0  0  0  0  0  0  0  0  0  0
    5.4641    0.5000    0.0000 C   0  0  0  0  0  0  0  0  0  0  0  0
    8.0901   -1.0347    0.0000 C   0  0  0  0  0  0  0  0  0  0  0  0
    8.0901    1.0347    0.0000 C   0  0  0  0  0  0  0  0  0  0  0  0
    8.9962   -0.5208    0.0000 C   0  0  0  0  0  0  0  0  0  0  0  0
    8.9962    0.5208    0.0000 C   0  0  0  0  0  0  0  0  0  0  0  0
    3.7320   -0.5000    0.0000 C   0  0  0  0  0  0  0  0  0  0  0  0
    2.8660   -1.0000    0.0000 C   0  0  0  0  0  0  0  0  0  0  0  0
    6.3301   -1.6200    0.0000 H   0  0  0  0  0  0  0  0  0  0  0  0
    6.3301    1.6200    0.0000 H   0  0  0  0  0  0  0  0  0  0  0  0
    4.9272    0.8100    0.0000 H   0  0  0  0  0  0  0  0  0  0  0  0
    8.0829   -1.6546    0.0000 H   0  0  0  0  0  0  0  0  0  0  0  0
    8.0829    1.6546    0.0000 H   0  0  0  0  0  0  0  0  0  0  0  0
    9.5319   -0.8329    0.0000 H   0  0  0  0  0  0  0  0  0  0  0  0
    9.5319    0.8329    0.0000 H   0  0  0  0  0  0  0  0  0  0  0  0
    4.1306   -0.0251    0.0000 H   0  0  0  0  0  0  0  0  0  0  0  0
    3.3335   -0.0251    0.0000 H   0  0  0  0  0  0  0  0  0  0  0  0
    2.4675   -1.4750    0.0000 H   0  0  0  0  0  0  0  0  0  0  0  0
    3.2646   -1.4750    0.0000 H   0  0  0  0  0  0  0  0  0  0  0  0
  1 14  1  0  0  0  0
  2  6  1  0  0  0  0
  2 13  1  0  0  0  0
  3  4  1  0  0  0  0
  3  5  1  0  0  0  0
  3  9  2  0  0  0  0
  4  7  1  0  0  0  0
  4 10  2  0  0  0  0
  5  6  2  0  0  0  0
  5 15  1  0  0  0  0
  6  8  1  0  0  0  0
  7  8  2  0  0  0  0
  7 16  1  0  0  0  0
  8 17  1  0  0  0  0
  9 11  1  0  0  0  0
  9 18  1  0  0  0  0
 10 12  1  0  0  0  0
 10 19  1  0  0  0  0
 11 12  2  0  0  0  0
 11 20  1  0  0  0  0
 12 21  1  0  0  0  0
 13 14  1  0  0  0  0
 13 22  1  0  0  0  0
 13 23  1  0  0  0  0
 14 24  1  0  0  0  0
 14 25  1  0  0  0  0
M  END
> <PUBCHEM_COMPOUND_CID>
43519120

> <PUBCHEM_COMPOUND_CANONICALIZED>
1

> <PUBCHEM_CACTVS_COMPLEXITY>
172

> <PUBCHEM_CACTVS_HBOND_ACCEPTOR>
1

> <PUBCHEM_CACTVS_HBOND_DONOR>
0

> <PUBCHEM_CACTVS_ROTATABLE_BOND>
3

> <PUBCHEM_CACTVS_SUBSKEYS>
AAADccBwAABAEAAAAAAAAAAAAAAAAAAAAAAwYAAAAAAAAADBUAAAGARAAAABTACEWACwAcAAAAiAAiBCAAACAAAgCBAIiBgAAIgIICKgERCAIAAggAAoiAcAgIAOkAAAgAAQAAAgAAEAACAAAAAAAAAAAA==

> <PUBCHEM_IUPAC_OPENEYE_NAME>
2-(2-bromoethylsulfanyl)naphthalene

> <PUBCHEM_IUPAC_CAS_NAME>
2-(2-bromoethylthio)naphthalene

> <PUBCHEM_IUPAC_NAME>
2-(2-bromoethylsulfanyl)naphthalene

> <PUBCHEM_IUPAC_SYSTEMATIC_NAME>
2-(2-bromoethylsulfanyl)naphthalene

> <PUBCHEM_IUPAC_TRADITIONAL_NAME>
2-(2-bromoethylthio)naphthalene

> <PUBCHEM_IUPAC_INCHI>
InChI=1S/C12H11BrS/c13-7-8-14-12-6-5-10-3-1-2-4-11(10)9-12/h1-6,9H,7-8H2

> <PUBCHEM_IUPAC_INCHIKEY>
BJMMVPMJWBGOEW-UHFFFAOYSA-N

> <PUBCHEM_XLOGP3>
4.8

> <PUBCHEM_EXACT_MASS>
265.976483

> <PUBCHEM_MOLECULAR_FORMULA>
C12H11BrS

> <PUBCHEM_MOLECULAR_WEIGHT>
267.18474

> <PUBCHEM_OPENEYE_CAN_SMILES>
C1=CC=C2C=C(C=CC2=C1)SCCBr

> <PUBCHEM_OPENEYE_ISO_SMILES>
C1=CC=C2C=C(C=CC2=C1)SCCBr

> <PUBCHEM_CACTVS_TPSA>
25.3

> <PUBCHEM_MONOISOTOPIC_WEIGHT>
265.976483

> <PUBCHEM_TOTAL_CHARGE>
0

> <PUBCHEM_HEAVY_ATOM_COUNT>
14

> <PUBCHEM_ATOM_DEF_STEREO_COUNT>
0

> <PUBCHEM_ATOM_UDEF_STEREO_COUNT>
0

> <PUBCHEM_BOND_DEF_STEREO_COUNT>
0

> <PUBCHEM_BOND_UDEF_STEREO_COUNT>
0

> <PUBCHEM_ISOTOPIC_ATOM_COUNT>
0

> <PUBCHEM_COMPONENT_COUNT>
1

> <PUBCHEM_CACTVS_TAUTO_COUNT>
1

> <PUBCHEM_COORDINATE_TYPE>
1
5
255

> <PUBCHEM_BONDANNOTATIONS>
10  12  8
11  12  8
3  4  8
3  5  8
3  9  8
4  10  8
4  7  8
5  6  8
6  8  8
7  8  8
9  11  8

$$$$
