19628015
  -OEChem-11301217252D

 37 38  0     0  0  0  0  0  0999 V2000
    6.3301   -0.2500    0.0000 S   0  0  0  0  0  0  0  0  0  0  0  0
    4.5981   -0.2500    0.0000 N   0  0  0  0  0  0  0  0  0  0  0  0
    5.4641    1.2500    0.0000 N   0  0  0  0  0  0  0  0  0  0  0  0
    2.8660   -1.2500    0.0000 C   0  0  0  0  0  0  0  0  0  0  0  0
    3.7320   -1.7500    0.0000 C   0  0  0  0  0  0  0  0  0  0  0  0
    4.5981   -1.2500    0.0000 C   0  0  0  0  0  0  0  0  0  0  0  0
    2.0000   -1.7500    0.0000 C   0  0  0  0  0  0  0  0  0  0  0  0
    2.8660   -0.2500    0.0000 C   0  0  0  0  0  0  0  0  0  0  0  0
    3.7320   -2.7500    0.0000 C   0  0  0  0  0  0  0  0  0  0  0  0
    5.4641   -1.7500    0.0000 C   0  0  0  0  0  0  0  0  0  0  0  0
    4.5981   -3.2500    0.0000 C   0  0  0  0  0  0  0  0  0  0  0  0
    5.4641   -2.7500    0.0000 C   0  0  0  0  0  0  0  0  0  0  0  0
    5.4641    0.2500    0.0000 C   0  0  0  0  0  0  0  0  0  0  0  0
    6.3301    1.7500    0.0000 C   0  0  0  0  0  0  0  0  0  0  0  0
    7.1962    1.2500    0.0000 C   0  0  0  0  0  0  0  0  0  0  0  0
    6.3301    2.7500    0.0000 C   0  0  0  0  0  0  0  0  0  0  0  0
    8.0622    1.7500    0.0000 C   0  0  0  0  0  0  0  0  0  0  0  0
    7.1962    3.2500    0.0000 C   0  0  0  0  0  0  0  0  0  0  0  0
    8.0622    2.7500    0.0000 C   0  0  0  0  0  0  0  0  0  0  0  0
    2.8660   -1.8700    0.0000 H   0  0  0  0  0  0  0  0  0  0  0  0
    3.4860   -0.2500    0.0000 H   0  0  0  0  0  0  0  0  0  0  0  0
    1.6900   -1.2131    0.0000 H   0  0  0  0  0  0  0  0  0  0  0  0
    1.4631   -2.0600    0.0000 H   0  0  0  0  0  0  0  0  0  0  0  0
    2.3100   -2.2869    0.0000 H   0  0  0  0  0  0  0  0  0  0  0  0
    2.8660    0.3700    0.0000 H   0  0  0  0  0  0  0  0  0  0  0  0
    2.2460   -0.2500    0.0000 H   0  0  0  0  0  0  0  0  0  0  0  0
    3.1951   -3.0600    0.0000 H   0  0  0  0  0  0  0  0  0  0  0  0
    6.0010   -1.4400    0.0000 H   0  0  0  0  0  0  0  0  0  0  0  0
    4.0611    0.0600    0.0000 H   0  0  0  0  0  0  0  0  0  0  0  0
    4.5981   -3.8700    0.0000 H   0  0  0  0  0  0  0  0  0  0  0  0
    6.0010   -3.0600    0.0000 H   0  0  0  0  0  0  0  0  0  0  0  0
    4.9272    1.5600    0.0000 H   0  0  0  0  0  0  0  0  0  0  0  0
    7.1962    0.6300    0.0000 H   0  0  0  0  0  0  0  0  0  0  0  0
    5.7932    3.0600    0.0000 H   0  0  0  0  0  0  0  0  0  0  0  0
    8.5991    1.4400    0.0000 H   0  0  0  0  0  0  0  0  0  0  0  0
    7.1962    3.8700    0.0000 H   0  0  0  0  0  0  0  0  0  0  0  0
    8.5991    3.0600    0.0000 H   0  0  0  0  0  0  0  0  0  0  0  0
  1 13  2  0  0  0  0
  2  6  1  0  0  0  0
  2 13  1  0  0  0  0
  2 29  1  0  0  0  0
  3 13  1  0  0  0  0
  3 14  1  0  0  0  0
  3 32  1  0  0  0  0
  4  5  1  0  0  0  0
  4  7  1  0  0  0  0
  4  8  1  0  0  0  0
  4 20  1  0  0  0  0
  5  6  1  0  0  0  0
  5  9  2  0  0  0  0
  6 10  2  0  0  0  0
  7 22  1  0  0  0  0
  7 23  1  0  0  0  0
  7 24  1  0  0  0  0
  8 21  1  0  0  0  0
  8 25  1  0  0  0  0
  8 26  1  0  0  0  0
  9 11  1  0  0  0  0
  9 27  1  0  0  0  0
 10 12  1  0  0  0  0
 10 28  1  0  0  0  0
 11 12  2  0  0  0  0
 11 30  1  0  0  0  0
 12 31  1  0  0  0  0
 14 15  2  0  0  0  0
 14 16  1  0  0  0  0
 15 17  1  0  0  0  0
 15 33  1  0  0  0  0
 16 18  2  0  0  0  0
 16 34  1  0  0  0  0
 17 19  2  0  0  0  0
 17 35  1  0  0  0  0
 18 19  1  0  0  0  0
 18 36  1  0  0  0  0
 19 37  1  0  0  0  0
M  END
> <PUBCHEM_COMPOUND_CID>
19628015

> <PUBCHEM_COMPOUND_CANONICALIZED>
1

> <PUBCHEM_CACTVS_COMPLEXITY>
285

> <PUBCHEM_CACTVS_HBOND_ACCEPTOR>
1

> <PUBCHEM_CACTVS_HBOND_DONOR>
2

> <PUBCHEM_CACTVS_ROTATABLE_BOND>
3

> <PUBCHEM_CACTVS_SUBSKEYS>
AAADceB7AABAAAAAAAAAAAAAAAAAAAAAAAAwYAAAAAAAAAABQAAAHAQQAAAADQiBGAAzwILAAACEAiRCQACCAAAhAgkIiAAAZIiIICLAkZGEIAhokAJIyCcQgMAOgAAAAAACAAAAAAAAAAQAAAAAAAAAAA==

> <PUBCHEM_IUPAC_OPENEYE_NAME>
1-(2-isopropylphenyl)-3-phenyl-thiourea

> <PUBCHEM_IUPAC_CAS_NAME>
1-phenyl-3-(2-propan-2-ylphenyl)thiourea

> <PUBCHEM_IUPAC_NAME>
1-phenyl-3-(2-propan-2-ylphenyl)thiourea

> <PUBCHEM_IUPAC_SYSTEMATIC_NAME>
1-phenyl-3-(2-propan-2-ylphenyl)thiourea

> <PUBCHEM_IUPAC_TRADITIONAL_NAME>
1-o-cumenyl-3-phenyl-thiourea

> <PUBCHEM_IUPAC_INCHI>
InChI=1S/C16H18N2S/c1-12(2)14-10-6-7-11-15(14)18-16(19)17-13-8-4-3-5-9-13/h3-12H,1-2H3,(H2,17,18,19)

> <PUBCHEM_IUPAC_INCHIKEY>
UNIDVSZSFVKZIC-UHFFFAOYSA-N

> <PUBCHEM_XLOGP3>
3.7

> <PUBCHEM_EXACT_MASS>
270.11907

> <PUBCHEM_MOLECULAR_FORMULA>
C16H18N2S

> <PUBCHEM_MOLECULAR_WEIGHT>
270.39252

> <PUBCHEM_OPENEYE_CAN_SMILES>
CC(C)C1=CC=CC=C1NC(=S)NC2=CC=CC=C2

> <PUBCHEM_OPENEYE_ISO_SMILES>
CC(C)C1=CC=CC=C1NC(=S)NC2=CC=CC=C2

> <PUBCHEM_CACTVS_TPSA>
56.2

> <PUBCHEM_MONOISOTOPIC_WEIGHT>
270.11907

> <PUBCHEM_TOTAL_CHARGE>
0

> <PUBCHEM_HEAVY_ATOM_COUNT>
19

> <PUBCHEM_ATOM_DEF_STEREO_COUNT>
0

> <PUBCHEM_ATOM_UDEF_STEREO_COUNT>
0

> <PUBCHEM_BOND_DEF_STEREO_COUNT>
0

> <PUBCHEM_BOND_UDEF_STEREO_COUNT>
0

> <PUBCHEM_ISOTOPIC_ATOM_COUNT>
0

> <PUBCHEM_COMPONENT_COUNT>
1

> <PUBCHEM_CACTVS_TAUTO_COUNT>
3

> <PUBCHEM_COORDINATE_TYPE>
1
5
255

> <PUBCHEM_BONDANNOTATIONS>
10  12  8
11  12  8
14  15  8
14  16  8
15  17  8
16  18  8
17  19  8
18  19  8
5  6  8
5  9  8
6  10  8
9  11  8

$$$$
19649245
  -OEChem-11301217272D

 37 38  0     0  0  0  0  0  0999 V2000
    5.4641   -1.2500    0.0000 S   0  0  0  0  0  0  0  0  0  0  0  0
    2.0000   -0.2500    0.0000 F   0  0  0  0  0  0  0  0  0  0  0  0
    2.3660    1.1160    0.0000 F   0  0  0  0  0  0  0  0  0  0  0  0
    3.3660   -0.6160    0.0000 F   0  0  0  0  0  0  0  0  0  0  0  0
    4.5981    4.2500    0.0000 F   0  0  0  0  0  0  0  0  0  0  0  0
    5.5981    3.2500    0.0000 F   0  0  0  0  0  0  0  0  0  0  0  0
    3.5981    3.2500    0.0000 F   0  0  0  0  0  0  0  0  0  0  0  0
    9.4282   -3.1160    0.0000 F   0  0  0  0  0  0  0  0  0  0  0  0
    9.7942   -1.7500    0.0000 F   0  0  0  0  0  0  0  0  0  0  0  0
    8.4282   -1.3840    0.0000 F   0  0  0  0  0  0  0  0  0  0  0  0
    6.3301    0.2500    0.0000 N   0  0  0  0  0  0  0  0  0  0  0  0
    7.1962   -1.2500    0.0000 N   0  0  0  0  0  0  0  0  0  0  0  0
    5.4641    0.7500    0.0000 C   0  0  0  0  0  0  0  0  0  0  0  0
    3.7320    0.7500    0.0000 C   0  0  0  0  0  0  0  0  0  0  0  0
    4.5981    2.2500    0.0000 C   0  0  0  0  0  0  0  0  0  0  0  0
    5.4641    1.7500    0.0000 C   0  0  0  0  0  0  0  0  0  0  0  0
    4.5981    0.2500    0.0000 C   0  0  0  0  0  0  0  0  0  0  0  0
    3.7320    1.7500    0.0000 C   0  0  0  0  0  0  0  0  0  0  0  0
    7.1962   -2.2500    0.0000 C   0  0  0  0  0  0  0  0  0  0  0  0
    8.0622   -2.7500    0.0000 C   0  0  0  0  0  0  0  0  0  0  0  0
    2.8660    0.2500    0.0000 C   0  0  0  0  0  0  0  0  0  0  0  0
    4.5981    3.2500    0.0000 C   0  0  0  0  0  0  0  0  0  0  0  0
    6.3301   -0.7500    0.0000 C   0  0  0  0  0  0  0  0  0  0  0  0
    6.3301   -2.7500    0.0000 C   0  0  0  0  0  0  0  0  0  0  0  0
    8.0622   -3.7500    0.0000 C   0  0  0  0  0  0  0  0  0  0  0  0
    8.9282   -2.2500    0.0000 C   0  0  0  0  0  0  0  0  0  0  0  0
    6.3301   -3.7500    0.0000 C   0  0  0  0  0  0  0  0  0  0  0  0
    7.1962   -4.2500    0.0000 C   0  0  0  0  0  0  0  0  0  0  0  0
    6.0010    2.0600    0.0000 H   0  0  0  0  0  0  0  0  0  0  0  0
    4.5981   -0.3700    0.0000 H   0  0  0  0  0  0  0  0  0  0  0  0
    3.1951    2.0600    0.0000 H   0  0  0  0  0  0  0  0  0  0  0  0
    6.8671    0.5600    0.0000 H   0  0  0  0  0  0  0  0  0  0  0  0
    7.7331   -0.9400    0.0000 H   0  0  0  0  0  0  0  0  0  0  0  0
    5.7932   -2.4400    0.0000 H   0  0  0  0  0  0  0  0  0  0  0  0
    8.5991   -4.0600    0.0000 H   0  0  0  0  0  0  0  0  0  0  0  0
    5.7932   -4.0600    0.0000 H   0  0  0  0  0  0  0  0  0  0  0  0
    7.1962   -4.8700    0.0000 H   0  0  0  0  0  0  0  0  0  0  0  0
  1 23  2  0  0  0  0
  2 21  1  0  0  0  0
  3 21  1  0  0  0  0
  4 21  1  0  0  0  0
  5 22  1  0  0  0  0
  6 22  1  0  0  0  0
  7 22  1  0  0  0  0
  8 26  1  0  0  0  0
  9 26  1  0  0  0  0
 10 26  1  0  0  0  0
 11 13  1  0  0  0  0
 11 23  1  0  0  0  0
 11 32  1  0  0  0  0
 12 19  1  0  0  0  0
 12 23  1  0  0  0  0
 12 33  1  0  0  0  0
 13 16  2  0  0  0  0
 13 17  1  0  0  0  0
 14 17  2  0  0  0  0
 14 18  1  0  0  0  0
 14 21  1  0  0  0  0
 15 16  1  0  0  0  0
 15 18  2  0  0  0  0
 15 22  1  0  0  0  0
 16 29  1  0  0  0  0
 17 30  1  0  0  0  0
 18 31  1  0  0  0  0
 19 20  1  0  0  0  0
 19 24  2  0  0  0  0
 20 25  2  0  0  0  0
 20 26  1  0  0  0  0
 24 27  1  0  0  0  0
 24 34  1  0  0  0  0
 25 28  1  0  0  0  0
 25 35  1  0  0  0  0
 27 28  2  0  0  0  0
 27 36  1  0  0  0  0
 28 37  1  0  0  0  0
M  END
> <PUBCHEM_COMPOUND_CID>
19649245

> <PUBCHEM_COMPOUND_CANONICALIZED>
1

> <PUBCHEM_CACTVS_COMPLEXITY>
522

> <PUBCHEM_CACTVS_HBOND_ACCEPTOR>
10

> <PUBCHEM_CACTVS_HBOND_DONOR>
2

> <PUBCHEM_CACTVS_ROTATABLE_BOND>
2

> <PUBCHEM_CACTVS_SUBSKEYS>
AAADccB7AcBAAAAAAAAAAAAAAAAAAAAAAAAwYAAAAAAAAAABQAAAHQQQAAAADAiBGBAxwILAAACEAiRCQACCAAAhAgkIiAAAZIiIICLAkZGEIAhokAJIyCcQgEAOAAACQAACAAAAAASAAAQAAAAAAAAAAA==

> <PUBCHEM_IUPAC_OPENEYE_NAME>
1-[3,5-bis(trifluoromethyl)phenyl]-3-[2-(trifluoromethyl)phenyl]thiourea

> <PUBCHEM_IUPAC_CAS_NAME>
1-[3,5-bis(trifluoromethyl)phenyl]-3-[2-(trifluoromethyl)phenyl]thiourea

> <PUBCHEM_IUPAC_NAME>
1-[3,5-bis(trifluoromethyl)phenyl]-3-[2-(trifluoromethyl)phenyl]thiourea

> <PUBCHEM_IUPAC_SYSTEMATIC_NAME>
1-[3,5-bis(trifluoromethyl)phenyl]-3-[2-(trifluoromethyl)phenyl]thiourea

> <PUBCHEM_IUPAC_TRADITIONAL_NAME>
1-[3,5-bis(trifluoromethyl)phenyl]-3-[2-(trifluoromethyl)phenyl]thiourea

> <PUBCHEM_IUPAC_INCHI>
InChI=1S/C16H9F9N2S/c17-14(18,19)8-5-9(15(20,21)22)7-10(6-8)26-13(28)27-12-4-2-1-3-11(12)16(23,24)25/h1-7H,(H2,26,27,28)

> <PUBCHEM_IUPAC_INCHIKEY>
MSECOXITVLVRJZ-UHFFFAOYSA-N

> <PUBCHEM_XLOGP3>
4.9

> <PUBCHEM_EXACT_MASS>
432.034273

> <PUBCHEM_MOLECULAR_FORMULA>
C16H9F9N2S

> <PUBCHEM_MOLECULAR_WEIGHT>
432.306689

> <PUBCHEM_OPENEYE_CAN_SMILES>
C1=CC=C(C(=C1)C(F)(F)F)NC(=S)NC2=CC(=CC(=C2)C(F)(F)F)C(F)(F)F

> <PUBCHEM_OPENEYE_ISO_SMILES>
C1=CC=C(C(=C1)C(F)(F)F)NC(=S)NC2=CC(=CC(=C2)C(F)(F)F)C(F)(F)F

> <PUBCHEM_CACTVS_TPSA>
56.2

> <PUBCHEM_MONOISOTOPIC_WEIGHT>
432.034273

> <PUBCHEM_TOTAL_CHARGE>
0

> <PUBCHEM_HEAVY_ATOM_COUNT>
28

> <PUBCHEM_ATOM_DEF_STEREO_COUNT>
0

> <PUBCHEM_ATOM_UDEF_STEREO_COUNT>
0

> <PUBCHEM_BOND_DEF_STEREO_COUNT>
0

> <PUBCHEM_BOND_UDEF_STEREO_COUNT>
0

> <PUBCHEM_ISOTOPIC_ATOM_COUNT>
0

> <PUBCHEM_COMPONENT_COUNT>
1

> <PUBCHEM_CACTVS_TAUTO_COUNT>
3

> <PUBCHEM_COORDINATE_TYPE>
1
5
255

> <PUBCHEM_BONDANNOTATIONS>
13  16  8
13  17  8
14  17  8
14  18  8
15  16  8
15  18  8
19  20  8
19  24  8
20  25  8
24  27  8
25  28  8
27  28  8

$$$$
19649310
  -OEChem-11301217272D

 27 27  0     0  0  0  0  0  0999 V2000
    2.8660    2.5000    0.0000 S   0  0  0  0  0  0  0  0  0  0  0  0
    3.7320    1.0000    0.0000 N   0  0  0  0  0  0  0  0  0  0  0  0
    4.5981    2.5000    0.0000 N   0  0  0  0  0  0  0  0  0  0  0  0
    2.8660   -0.5000    0.0000 C   0  0  0  0  0  0  0  0  0  0  0  0
    2.8660    0.5000    0.0000 C   0  0  0  0  0  0  0  0  0  0  0  0
    2.0000   -1.0000    0.0000 C   0  0  0  0  0  0  0  0  0  0  0  0
    3.7320   -1.0000    0.0000 C   0  0  0  0  0  0  0  0  0  0  0  0
    2.8660   -2.5000    0.0000 C   0  0  0  0  0  0  0  0  0  0  0  0
    2.0000   -2.0000    0.0000 C   0  0  0  0  0  0  0  0  0  0  0  0
    3.7320   -2.0000    0.0000 C   0  0  0  0  0  0  0  0  0  0  0  0
    2.8660   -3.5000    0.0000 C   0  0  0  0  0  0  0  0  0  0  0  0
    3.7320    2.0000    0.0000 C   0  0  0  0  0  0  0  0  0  0  0  0
    4.5981    3.5000    0.0000 C   0  0  0  0  0  0  0  0  0  0  0  0
    2.6540    1.0826    0.0000 H   0  0  0  0  0  0  0  0  0  0  0  0
    2.2554    0.3923    0.0000 H   0  0  0  0  0  0  0  0  0  0  0  0
    1.4631   -0.6900    0.0000 H   0  0  0  0  0  0  0  0  0  0  0  0
    4.2690   -0.6900    0.0000 H   0  0  0  0  0  0  0  0  0  0  0  0
    1.4631   -2.3100    0.0000 H   0  0  0  0  0  0  0  0  0  0  0  0
    4.2690   -2.3100    0.0000 H   0  0  0  0  0  0  0  0  0  0  0  0
    4.2690    0.6900    0.0000 H   0  0  0  0  0  0  0  0  0  0  0  0
    2.2460   -3.5000    0.0000 H   0  0  0  0  0  0  0  0  0  0  0  0
    2.8660   -4.1200    0.0000 H   0  0  0  0  0  0  0  0  0  0  0  0
    3.4860   -3.5000    0.0000 H   0  0  0  0  0  0  0  0  0  0  0  0
    5.1350    2.1900    0.0000 H   0  0  0  0  0  0  0  0  0  0  0  0
    5.2181    3.5000    0.0000 H   0  0  0  0  0  0  0  0  0  0  0  0
    4.5981    4.1200    0.0000 H   0  0  0  0  0  0  0  0  0  0  0  0
    3.9781    3.5000    0.0000 H   0  0  0  0  0  0  0  0  0  0  0  0
  1 12  2  0  0  0  0
  2  5  1  0  0  0  0
  2 12  1  0  0  0  0
  2 20  1  0  0  0  0
  3 12  1  0  0  0  0
  3 13  1  0  0  0  0
  3 24  1  0  0  0  0
  4  5  1  0  0  0  0
  4  6  2  0  0  0  0
  4  7  1  0  0  0  0
  5 14  1  0  0  0  0
  5 15  1  0  0  0  0
  6  9  1  0  0  0  0
  6 16  1  0  0  0  0
  7 10  2  0  0  0  0
  7 17  1  0  0  0  0
  8  9  2  0  0  0  0
  8 10  1  0  0  0  0
  8 11  1  0  0  0  0
  9 18  1  0  0  0  0
 10 19  1  0  0  0  0
 11 21  1  0  0  0  0
 11 22  1  0  0  0  0
 11 23  1  0  0  0  0
 13 25  1  0  0  0  0
 13 26  1  0  0  0  0
 13 27  1  0  0  0  0
M  END
> <PUBCHEM_COMPOUND_CID>
19649310

> <PUBCHEM_COMPOUND_CANONICALIZED>
1

> <PUBCHEM_CACTVS_COMPLEXITY>
162

> <PUBCHEM_CACTVS_HBOND_ACCEPTOR>
1

> <PUBCHEM_CACTVS_HBOND_DONOR>
2

> <PUBCHEM_CACTVS_ROTATABLE_BOND>
2

> <PUBCHEM_CACTVS_SUBSKEYS>
AAADccBzAABAAAAAAAAAAAAAAAAAAAAAAAAwAAAAAAAAAAABAAAAHAQQAAAADADBGAQzAILAAACEAiBCAACCAAAgAAkIiIAIBIiIICKAkRGEIAhogAIIiAcQgAAOQAAAAAAAAACAAAAAAAAAAAAAAAAAAA==

> <PUBCHEM_IUPAC_OPENEYE_NAME>
1-methyl-3-(p-tolylmethyl)thiourea

> <PUBCHEM_IUPAC_CAS_NAME>
1-methyl-3-[(4-methylphenyl)methyl]thiourea

> <PUBCHEM_IUPAC_NAME>
1-methyl-3-[(4-methylphenyl)methyl]thiourea

> <PUBCHEM_IUPAC_SYSTEMATIC_NAME>
1-methyl-3-[(4-methylphenyl)methyl]thiourea

> <PUBCHEM_IUPAC_TRADITIONAL_NAME>
1-methyl-3-(4-methylbenzyl)thiourea

> <PUBCHEM_IUPAC_INCHI>
InChI=1S/C10H14N2S/c1-8-3-5-9(6-4-8)7-12-10(13)11-2/h3-6H,7H2,1-2H3,(H2,11,12,13)

> <PUBCHEM_IUPAC_INCHIKEY>
CHOLBNPDXYIOAT-UHFFFAOYSA-N

> <PUBCHEM_XLOGP3>
1.7

> <PUBCHEM_EXACT_MASS>
194.087769

> <PUBCHEM_MOLECULAR_FORMULA>
C10H14N2S

> <PUBCHEM_MOLECULAR_WEIGHT>
194.29656

> <PUBCHEM_OPENEYE_CAN_SMILES>
CC1=CC=C(C=C1)CNC(=S)NC

> <PUBCHEM_OPENEYE_ISO_SMILES>
CC1=CC=C(C=C1)CNC(=S)NC

> <PUBCHEM_CACTVS_TPSA>
56.2

> <PUBCHEM_MONOISOTOPIC_WEIGHT>
194.087769

> <PUBCHEM_TOTAL_CHARGE>
0

> <PUBCHEM_HEAVY_ATOM_COUNT>
13

> <PUBCHEM_ATOM_DEF_STEREO_COUNT>
0

> <PUBCHEM_ATOM_UDEF_STEREO_COUNT>
0

> <PUBCHEM_BOND_DEF_STEREO_COUNT>
0

> <PUBCHEM_BOND_UDEF_STEREO_COUNT>
0

> <PUBCHEM_ISOTOPIC_ATOM_COUNT>
0

> <PUBCHEM_COMPONENT_COUNT>
1

> <PUBCHEM_CACTVS_TAUTO_COUNT>
3

> <PUBCHEM_COORDINATE_TYPE>
1
5
255

> <PUBCHEM_BONDANNOTATIONS>
4  6  8
4  7  8
6  9  8
7  10  8
8  10  8
8  9  8

$$$$
19649853
  -OEChem-11301217272D

 43 45  0     1  0  0  0  0  0999 V2000
    2.8660    1.4827    0.0000 S   0  0  0  0  0  0  0  0  0  0  0  0
    3.7320   -0.0173    0.0000 N   0  0  0  0  0  0  0  0  0  0  0  0
    4.5981    1.4827    0.0000 N   0  0  0  0  0  0  0  0  0  0  0  0
    2.8660   -0.5173    0.0000 C   0  0  3  0  0  0  0  0  0  0  0  0
    2.8660   -1.5173    0.0000 C   0  0  0  0  0  0  0  0  0  0  0  0
    2.0000   -0.0173    0.0000 C   0  0  0  0  0  0  0  0  0  0  0  0
    5.4641    2.9827    0.0000 C   0  0  0  0  0  0  0  0  0  0  0  0
    4.5981    2.4827    0.0000 C   0  0  0  0  0  0  0  0  0  0  0  0
    2.0000   -2.0173    0.0000 C   0  0  0  0  0  0  0  0  0  0  0  0
    3.7320   -2.0173    0.0000 C   0  0  0  0  0  0  0  0  0  0  0  0
    5.4641    3.9827    0.0000 C   0  0  0  0  0  0  0  0  0  0  0  0
    3.7320    0.9827    0.0000 C   0  0  0  0  0  0  0  0  0  0  0  0
    2.8660   -3.5173    0.0000 C   0  0  0  0  0  0  0  0  0  0  0  0
    2.0000   -3.0173    0.0000 C   0  0  0  0  0  0  0  0  0  0  0  0
    3.7320   -3.0173    0.0000 C   0  0  0  0  0  0  0  0  0  0  0  0
    3.7320    2.9827    0.0000 C   0  0  0  0  0  0  0  0  0  0  0  0
    6.3580    2.4480    0.0000 C   0  0  0  0  0  0  0  0  0  0  0  0
    4.5981    4.4827    0.0000 C   0  0  0  0  0  0  0  0  0  0  0  0
    6.3580    4.5173    0.0000 C   0  0  0  0  0  0  0  0  0  0  0  0
    3.7320    3.9827    0.0000 C   0  0  0  0  0  0  0  0  0  0  0  0
    7.2641    2.9618    0.0000 C   0  0  0  0  0  0  0  0  0  0  0  0
    7.2641    4.0035    0.0000 C   0  0  0  0  0  0  0  0  0  0  0  0
    2.8660   -4.5173    0.0000 C   0  0  0  0  0  0  0  0  0  0  0  0
    2.8660    0.1027    0.0000 H   0  0  0  0  0  0  0  0  0  0  0  0
    4.2690   -0.3273    0.0000 H   0  0  0  0  0  0  0  0  0  0  0  0
    2.3100    0.5196    0.0000 H   0  0  0  0  0  0  0  0  0  0  0  0
    1.4631    0.2927    0.0000 H   0  0  0  0  0  0  0  0  0  0  0  0
    1.6900   -0.5543    0.0000 H   0  0  0  0  0  0  0  0  0  0  0  0
    1.4631   -1.7073    0.0000 H   0  0  0  0  0  0  0  0  0  0  0  0
    4.2690   -1.7073    0.0000 H   0  0  0  0  0  0  0  0  0  0  0  0
    5.1350    1.1727    0.0000 H   0  0  0  0  0  0  0  0  0  0  0  0
    1.4631   -3.3273    0.0000 H   0  0  0  0  0  0  0  0  0  0  0  0
    4.2690   -3.3273    0.0000 H   0  0  0  0  0  0  0  0  0  0  0  0
    3.1951    2.6727    0.0000 H   0  0  0  0  0  0  0  0  0  0  0  0
    6.3509    1.8280    0.0000 H   0  0  0  0  0  0  0  0  0  0  0  0
    4.5981    5.1027    0.0000 H   0  0  0  0  0  0  0  0  0  0  0  0
    6.3509    5.1373    0.0000 H   0  0  0  0  0  0  0  0  0  0  0  0
    3.1951    4.2927    0.0000 H   0  0  0  0  0  0  0  0  0  0  0  0
    7.7998    2.6498    0.0000 H   0  0  0  0  0  0  0  0  0  0  0  0
    7.7998    4.3156    0.0000 H   0  0  0  0  0  0  0  0  0  0  0  0
    2.2460   -4.5173    0.0000 H   0  0  0  0  0  0  0  0  0  0  0  0
    2.8660   -5.1373    0.0000 H   0  0  0  0  0  0  0  0  0  0  0  0
    3.4860   -4.5173    0.0000 H   0  0  0  0  0  0  0  0  0  0  0  0
  1 12  2  0  0  0  0
  2  4  1  0  0  0  0
  2 12  1  0  0  0  0
  2 25  1  0  0  0  0
  3  8  1  0  0  0  0
  3 12  1  0  0  0  0
  3 31  1  0  0  0  0
  4  5  1  0  0  0  0
  4  6  1  0  0  0  0
  4 24  1  0  0  0  0
  5  9  2  0  0  0  0
  5 10  1  0  0  0  0
  6 26  1  0  0  0  0
  6 27  1  0  0  0  0
  6 28  1  0  0  0  0
  7  8  1  0  0  0  0
  7 11  1  0  0  0  0
  7 17  2  0  0  0  0
  8 16  2  0  0  0  0
  9 14  1  0  0  0  0
  9 29  1  0  0  0  0
 10 15  2  0  0  0  0
 10 30  1  0  0  0  0
 11 18  1  0  0  0  0
 11 19  2  0  0  0  0
 13 14  2  0  0  0  0
 13 15  1  0  0  0  0
 13 23  1  0  0  0  0
 14 32  1  0  0  0  0
 15 33  1  0  0  0  0
 16 20  1  0  0  0  0
 16 34  1  0  0  0  0
 17 21  1  0  0  0  0
 17 35  1  0  0  0  0
 18 20  2  0  0  0  0
 18 36  1  0  0  0  0
 19 22  1  0  0  0  0
 19 37  1  0  0  0  0
 20 38  1  0  0  0  0
 21 22  2  0  0  0  0
 21 39  1  0  0  0  0
 22 40  1  0  0  0  0
 23 41  1  0  0  0  0
 23 42  1  0  0  0  0
 23 43  1  0  0  0  0
M  END
> <PUBCHEM_COMPOUND_CID>
19649853

> <PUBCHEM_COMPOUND_CANONICALIZED>
1

> <PUBCHEM_CACTVS_COMPLEXITY>
389

> <PUBCHEM_CACTVS_HBOND_ACCEPTOR>
1

> <PUBCHEM_CACTVS_HBOND_DONOR>
2

> <PUBCHEM_CACTVS_ROTATABLE_BOND>
3

> <PUBCHEM_CACTVS_SUBSKEYS>
AAADceB7AABAAAAAAAAAAAAAAAAAAAAAAAAwYMAAAAAAAADBVAAAHAQQAAAADCjBGAQzwMLAAACEAiRCQACCAAAhAgkIiIAIZIiIICLAkZGEIAhokAJIyCcQgMAOwAAAQAASAACAAACAACQAAAAAAAAAAA==

> <PUBCHEM_IUPAC_OPENEYE_NAME>
1-(1-naphthyl)-3-[1-(p-tolyl)ethyl]thiourea

> <PUBCHEM_IUPAC_CAS_NAME>
1-[1-(4-methylphenyl)ethyl]-3-(1-naphthalenyl)thiourea

> <PUBCHEM_IUPAC_NAME>
1-[1-(4-methylphenyl)ethyl]-3-naphthalen-1-ylthiourea

> <PUBCHEM_IUPAC_SYSTEMATIC_NAME>
1-[1-(4-methylphenyl)ethyl]-3-naphthalen-1-yl-thiourea

> <PUBCHEM_IUPAC_TRADITIONAL_NAME>
1-(1-naphthyl)-3-[1-(p-tolyl)ethyl]thiourea

> <PUBCHEM_IUPAC_INCHI>
InChI=1S/C20H20N2S/c1-14-10-12-16(13-11-14)15(2)21-20(23)22-19-9-5-7-17-6-3-4-8-18(17)19/h3-13,15H,1-2H3,(H2,21,22,23)

> <PUBCHEM_IUPAC_INCHIKEY>
DTGHQRWSEAHOGI-UHFFFAOYSA-N

> <PUBCHEM_XLOGP3>
4.3

> <PUBCHEM_EXACT_MASS>
320.13472

> <PUBCHEM_MOLECULAR_FORMULA>
C20H20N2S

> <PUBCHEM_MOLECULAR_WEIGHT>
320.4512

> <PUBCHEM_OPENEYE_CAN_SMILES>
CC1=CC=C(C=C1)C(C)NC(=S)NC2=CC=CC3=CC=CC=C32

> <PUBCHEM_OPENEYE_ISO_SMILES>
CC1=CC=C(C=C1)C(C)NC(=S)NC2=CC=CC3=CC=CC=C32

> <PUBCHEM_CACTVS_TPSA>
56.2

> <PUBCHEM_MONOISOTOPIC_WEIGHT>
320.13472

> <PUBCHEM_TOTAL_CHARGE>
0

> <PUBCHEM_HEAVY_ATOM_COUNT>
23

> <PUBCHEM_ATOM_DEF_STEREO_COUNT>
0

> <PUBCHEM_ATOM_UDEF_STEREO_COUNT>
1

> <PUBCHEM_BOND_DEF_STEREO_COUNT>
0

> <PUBCHEM_BOND_UDEF_STEREO_COUNT>
0

> <PUBCHEM_ISOTOPIC_ATOM_COUNT>
0

> <PUBCHEM_COMPONENT_COUNT>
1

> <PUBCHEM_CACTVS_TAUTO_COUNT>
3

> <PUBCHEM_COORDINATE_TYPE>
1
5
255

> <PUBCHEM_BONDANNOTATIONS>
10  15  8
11  18  8
11  19  8
13  14  8
13  15  8
16  20  8
17  21  8
18  20  8
19  22  8
21  22  8
4  6  3
5  10  8
5  9  8
7  11  8
7  17  8
7  8  8
8  16  8
9  14  8

$$$$
