25475956
  -OEChem-12041211272D

 60 62  0     0  0  0  0  0  0999 V2000
    6.3301   -1.3716    0.0000 O   0  0  0  0  0  0  0  0  0  0  0  0
    6.3301    3.6284    0.0000 N   0  3  0  0  0  0  0  0  0  0  0  0
    4.5981   -1.3716    0.0000 N   0  0  0  0  0  0  0  0  0  0  0  0
    6.8301    2.7624    0.0000 C   0  0  0  0  0  0  0  0  0  0  0  0
    6.9993    4.3716    0.0000 C   0  0  0  0  0  0  0  0  0  0  0  0
    7.8083    2.9703    0.0000 C   0  0  0  0  0  0  0  0  0  0  0  0
    7.9128    3.9648    0.0000 C   0  0  0  0  0  0  0  0  0  0  0  0
    5.4641    3.1284    0.0000 C   0  0  0  0  0  0  0  0  0  0  0  0
    5.4641    2.1284    0.0000 C   0  0  0  0  0  0  0  0  0  0  0  0
    4.5981    1.6284    0.0000 C   0  0  0  0  0  0  0  0  0  0  0  0
    6.3301    1.6284    0.0000 C   0  0  0  0  0  0  0  0  0  0  0  0
    4.5981    0.6284    0.0000 C   0  0  0  0  0  0  0  0  0  0  0  0
    6.3301    0.6284    0.0000 C   0  0  0  0  0  0  0  0  0  0  0  0
    5.4641    0.1284    0.0000 C   0  0  0  0  0  0  0  0  0  0  0  0
    4.5981   -2.3716    0.0000 C   0  0  0  0  0  0  0  0  0  0  0  0
    3.7320   -2.8716    0.0000 C   0  0  0  0  0  0  0  0  0  0  0  0
    5.4641   -2.8716    0.0000 C   0  0  0  0  0  0  0  0  0  0  0  0
    2.8660   -2.3716    0.0000 C   0  0  0  0  0  0  0  0  0  0  0  0
    6.4489   -3.0452    0.0000 C   0  0  0  0  0  0  0  0  0  0  0  0
    5.4641   -0.8716    0.0000 C   0  0  0  0  0  0  0  0  0  0  0  0
    3.7320   -3.8716    0.0000 C   0  0  0  0  0  0  0  0  0  0  0  0
    5.4641   -3.8716    0.0000 C   0  0  0  0  0  0  0  0  0  0  0  0
    2.0000   -2.8716    0.0000 C   0  0  0  0  0  0  0  0  0  0  0  0
    2.8660   -1.3716    0.0000 C   0  0  0  0  0  0  0  0  0  0  0  0
    6.7909   -3.9849    0.0000 C   0  0  0  0  0  0  0  0  0  0  0  0
    7.0917   -2.2792    0.0000 C   0  0  0  0  0  0  0  0  0  0  0  0
    4.5981   -4.3716    0.0000 C   0  0  0  0  0  0  0  0  0  0  0  0
    5.5870    4.2976    0.0000 H   0  0  0  0  0  0  0  0  0  0  0  0
    6.2637    2.5102    0.0000 H   0  0  0  0  0  0  0  0  0  0  0  0
    7.0217    2.1728    0.0000 H   0  0  0  0  0  0  0  0  0  0  0  0
    7.3093    4.9085    0.0000 H   0  0  0  0  0  0  0  0  0  0  0  0
    6.4977    4.7360    0.0000 H   0  0  0  0  0  0  0  0  0  0  0  0
    7.8731    2.3537    0.0000 H   0  0  0  0  0  0  0  0  0  0  0  0
    8.4283    2.9703    0.0000 H   0  0  0  0  0  0  0  0  0  0  0  0
    8.5192    3.8359    0.0000 H   0  0  0  0  0  0  0  0  0  0  0  0
    8.1044    4.5545    0.0000 H   0  0  0  0  0  0  0  0  0  0  0  0
    5.2520    3.7110    0.0000 H   0  0  0  0  0  0  0  0  0  0  0  0
    4.8535    3.0208    0.0000 H   0  0  0  0  0  0  0  0  0  0  0  0
    4.0611    1.9384    0.0000 H   0  0  0  0  0  0  0  0  0  0  0  0
    6.8671    1.9384    0.0000 H   0  0  0  0  0  0  0  0  0  0  0  0
    4.0611    0.3184    0.0000 H   0  0  0  0  0  0  0  0  0  0  0  0
    6.8671    0.3184    0.0000 H   0  0  0  0  0  0  0  0  0  0  0  0
    2.8660   -2.9916    0.0000 H   0  0  0  0  0  0  0  0  0  0  0  0
    6.2369   -2.4626    0.0000 H   0  0  0  0  0  0  0  0  0  0  0  0
    4.0611   -1.0616    0.0000 H   0  0  0  0  0  0  0  0  0  0  0  0
    3.1951   -4.1816    0.0000 H   0  0  0  0  0  0  0  0  0  0  0  0
    6.0010   -4.1816    0.0000 H   0  0  0  0  0  0  0  0  0  0  0  0
    1.6900   -2.3346    0.0000 H   0  0  0  0  0  0  0  0  0  0  0  0
    1.4631   -3.1816    0.0000 H   0  0  0  0  0  0  0  0  0  0  0  0
    2.3100   -3.4085    0.0000 H   0  0  0  0  0  0  0  0  0  0  0  0
    3.4860   -1.3716    0.0000 H   0  0  0  0  0  0  0  0  0  0  0  0
    2.8660   -0.7516    0.0000 H   0  0  0  0  0  0  0  0  0  0  0  0
    2.2460   -1.3716    0.0000 H   0  0  0  0  0  0  0  0  0  0  0  0
    7.5666   -2.6777    0.0000 H   0  0  0  0  0  0  0  0  0  0  0  0
    7.4902   -1.8042    0.0000 H   0  0  0  0  0  0  0  0  0  0  0  0
    6.2083   -4.1970    0.0000 H   0  0  0  0  0  0  0  0  0  0  0  0
    6.6168   -1.8806    0.0000 H   0  0  0  0  0  0  0  0  0  0  0  0
    7.0030   -4.5675    0.0000 H   0  0  0  0  0  0  0  0  0  0  0  0
    7.3735   -3.7729    0.0000 H   0  0  0  0  0  0  0  0  0  0  0  0
    4.5981   -4.9916    0.0000 H   0  0  0  0  0  0  0  0  0  0  0  0
  1 20  2  0  0  0  0
  2  4  1  0  0  0  0
  2  5  1  0  0  0  0
  2  8  1  0  0  0  0
  2 28  1  0  0  0  0
  3 15  1  0  0  0  0
  3 20  1  0  0  0  0
  3 45  1  0  0  0  0
  4  6  1  0  0  0  0
  4 29  1  0  0  0  0
  4 30  1  0  0  0  0
  5  7  1  0  0  0  0
  5 31  1  0  0  0  0
  5 32  1  0  0  0  0
  6  7  1  0  0  0  0
  6 33  1  0  0  0  0
  6 34  1  0  0  0  0
  7 35  1  0  0  0  0
  7 36  1  0  0  0  0
  8  9  1  0  0  0  0
  8 37  1  0  0  0  0
  8 38  1  0  0  0  0
  9 10  2  0  0  0  0
  9 11  1  0  0  0  0
 10 12  1  0  0  0  0
 10 39  1  0  0  0  0
 11 13  2  0  0  0  0
 11 40  1  0  0  0  0
 12 14  2  0  0  0  0
 12 41  1  0  0  0  0
 13 14  1  0  0  0  0
 13 42  1  0  0  0  0
 14 20  1  0  0  0  0
 15 16  2  0  0  0  0
 15 17  1  0  0  0  0
 16 18  1  0  0  0  0
 16 21  1  0  0  0  0
 17 19  1  0  0  0  0
 17 22  2  0  0  0  0
 18 23  1  0  0  0  0
 18 24  1  0  0  0  0
 18 43  1  0  0  0  0
 19 25  1  0  0  0  0
 19 26  1  0  0  0  0
 19 44  1  0  0  0  0
 21 27  2  0  0  0  0
 21 46  1  0  0  0  0
 22 27  1  0  0  0  0
 22 47  1  0  0  0  0
 23 48  1  0  0  0  0
 23 49  1  0  0  0  0
 23 50  1  0  0  0  0
 24 51  1  0  0  0  0
 24 52  1  0  0  0  0
 24 53  1  0  0  0  0
 25 56  1  0  0  0  0
 25 58  1  0  0  0  0
 25 59  1  0  0  0  0
 26 54  1  0  0  0  0
 26 55  1  0  0  0  0
 26 57  1  0  0  0  0
 27 60  1  0  0  0  0
M  CHG  1   2   1
M  END
> <PUBCHEM_COMPOUND_CID>
25475956

> <PUBCHEM_COMPOUND_CANONICALIZED>
1

> <PUBCHEM_CACTVS_COMPLEXITY>
445

> <PUBCHEM_CACTVS_HBOND_ACCEPTOR>
1

> <PUBCHEM_CACTVS_HBOND_DONOR>
2

> <PUBCHEM_CACTVS_ROTATABLE_BOND>
6

> <PUBCHEM_CACTVS_SUBSKEYS>
AAADcfB7IAAAAAAAAAAAAAAAAAAAAWAAAAAwYAAAAAAAAAABQAAAHgAQAAAADQjBmAQywIPAAACIAiVSUACCAAAlAAAIiIEIRMgIIDLAlZGEIQhglADIyYcYiMCOwAACAAACAACAAAQAAAQAAAAAAAAAAA==

> <PUBCHEM_IUPAC_OPENEYE_NAME>
N-(2,6-diisopropylphenyl)-4-(pyrrolidin-1-ium-1-ylmethyl)benzamide

> <PUBCHEM_IUPAC_CAS_NAME>
N-[2,6-di(propan-2-yl)phenyl]-4-(1-pyrrolidin-1-iumylmethyl)benzamide

> <PUBCHEM_IUPAC_NAME>
N-[2,6-di(propan-2-yl)phenyl]-4-(pyrrolidin-1-ium-1-ylmethyl)benzamide

> <PUBCHEM_IUPAC_SYSTEMATIC_NAME>
N-[2,6-di(propan-2-yl)phenyl]-4-(pyrrolidin-1-ium-1-ylmethyl)benzamide

> <PUBCHEM_IUPAC_TRADITIONAL_NAME>
N-(2,6-diisopropylphenyl)-4-(pyrrolidin-1-ium-1-ylmethyl)benzamide

> <PUBCHEM_IUPAC_INCHI>
InChI=1S/C24H32N2O/c1-17(2)21-8-7-9-22(18(3)4)23(21)25-24(27)20-12-10-19(11-13-20)16-26-14-5-6-15-26/h7-13,17-18H,5-6,14-16H2,1-4H3,(H,25,27)/p+1

> <PUBCHEM_IUPAC_INCHIKEY>
MRKCIUYHZASKEQ-UHFFFAOYSA-O

> <PUBCHEM_XLOGP3>
4.7

> <PUBCHEM_EXACT_MASS>
365.259289

> <PUBCHEM_MOLECULAR_FORMULA>
C24H33N2O+

> <PUBCHEM_MOLECULAR_WEIGHT>
365.53162

> <PUBCHEM_OPENEYE_CAN_SMILES>
CC(C)C1=C(C(=CC=C1)C(C)C)NC(=O)C2=CC=C(C=C2)C[NH+]3CCCC3

> <PUBCHEM_OPENEYE_ISO_SMILES>
CC(C)C1=C(C(=CC=C1)C(C)C)NC(=O)C2=CC=C(C=C2)C[NH+]3CCCC3

> <PUBCHEM_CACTVS_TPSA>
33.5

> <PUBCHEM_MONOISOTOPIC_WEIGHT>
365.259289

> <PUBCHEM_TOTAL_CHARGE>
1

> <PUBCHEM_HEAVY_ATOM_COUNT>
27

> <PUBCHEM_ATOM_DEF_STEREO_COUNT>
0

> <PUBCHEM_ATOM_UDEF_STEREO_COUNT>
0

> <PUBCHEM_BOND_DEF_STEREO_COUNT>
0

> <PUBCHEM_BOND_UDEF_STEREO_COUNT>
0

> <PUBCHEM_ISOTOPIC_ATOM_COUNT>
0

> <PUBCHEM_COMPONENT_COUNT>
1

> <PUBCHEM_CACTVS_TAUTO_COUNT>
2

> <PUBCHEM_COORDINATE_TYPE>
1
5
255

> <PUBCHEM_BONDANNOTATIONS>
10  12  8
11  13  8
12  14  8
13  14  8
15  16  8
15  17  8
16  21  8
17  22  8
21  27  8
22  27  8
9  10  8
9  11  8

$$$$
25478116
  -OEChem-12041211272D

 48 51  0     1  0  0  0  0  0999 V2000
    6.7893   -0.3224    0.0000 O   0  0  0  0  0  0  0  0  0  0  0  0
    5.9233    1.1776    0.0000 N   0  0  0  0  0  0  0  0  0  0  0  0
    2.6164   -2.1544    0.0000 N   0  0  0  0  0  0  0  0  0  0  0  0
    6.7893    1.6776    0.0000 C   0  0  1  0  0  0  0  0  0  0  0  0
    5.0573   -1.3224    0.0000 C   0  0  0  0  0  0  0  0  0  0  0  0
    6.7893    2.6776    0.0000 C   0  0  0  0  0  0  0  0  0  0  0  0
    4.1912   -1.8224    0.0000 C   0  0  0  0  0  0  0  0  0  0  0  0
    5.0573   -0.3224    0.0000 C   0  0  0  0  0  0  0  0  0  0  0  0
    4.0882   -2.8112    0.0000 C   0  0  0  0  0  0  0  0  0  0  0  0
    7.6554    3.1776    0.0000 C   0  0  0  0  0  0  0  0  0  0  0  0
    5.9233    0.1776    0.0000 C   0  0  0  0  0  0  0  0  0  0  0  0
    3.1097   -3.0174    0.0000 C   0  0  0  0  0  0  0  0  0  0  0  0
    7.6554    1.1776    0.0000 C   0  0  0  0  0  0  0  0  0  0  0  0
    3.2835   -1.4173    0.0000 C   0  0  0  0  0  0  0  0  0  0  0  0
    7.6554    4.1776    0.0000 C   0  0  0  0  0  0  0  0  0  0  0  0
    5.9233    3.1776    0.0000 C   0  0  0  0  0  0  0  0  0  0  0  0
    4.7560   -3.5555    0.0000 C   0  0  0  0  0  0  0  0  0  0  0  0
    8.5493    2.6429    0.0000 C   0  0  0  0  0  0  0  0  0  0  0  0
    6.7893    4.6776    0.0000 C   0  0  0  0  0  0  0  0  0  0  0  0
    5.9233    4.1776    0.0000 C   0  0  0  0  0  0  0  0  0  0  0  0
    2.7990   -3.9679    0.0000 C   0  0  0  0  0  0  0  0  0  0  0  0
    8.5493    4.7122    0.0000 C   0  0  0  0  0  0  0  0  0  0  0  0
    4.4454   -4.5060    0.0000 C   0  0  0  0  0  0  0  0  0  0  0  0
    3.4669   -4.7122    0.0000 C   0  0  0  0  0  0  0  0  0  0  0  0
    9.4554    3.1567    0.0000 C   0  0  0  0  0  0  0  0  0  0  0  0
    9.4554    4.1984    0.0000 C   0  0  0  0  0  0  0  0  0  0  0  0
    6.7893    1.0576    0.0000 H   0  0  0  0  0  0  0  0  0  0  0  0
    5.2693   -1.9051    0.0000 H   0  0  0  0  0  0  0  0  0  0  0  0
    5.6678   -1.2148    0.0000 H   0  0  0  0  0  0  0  0  0  0  0  0
    4.8452    0.2602    0.0000 H   0  0  0  0  0  0  0  0  0  0  0  0
    4.4467   -0.4301    0.0000 H   0  0  0  0  0  0  0  0  0  0  0  0
    5.3864    1.4876    0.0000 H   0  0  0  0  0  0  0  0  0  0  0  0
    7.3454    0.6406    0.0000 H   0  0  0  0  0  0  0  0  0  0  0  0
    8.1923    0.8676    0.0000 H   0  0  0  0  0  0  0  0  0  0  0  0
    7.9654    1.7145    0.0000 H   0  0  0  0  0  0  0  0  0  0  0  0
    3.1556   -0.8107    0.0000 H   0  0  0  0  0  0  0  0  0  0  0  0
    5.3864    2.8676    0.0000 H   0  0  0  0  0  0  0  0  0  0  0  0
    2.0000   -2.0874    0.0000 H   0  0  0  0  0  0  0  0  0  0  0  0
    5.3627   -3.4276    0.0000 H   0  0  0  0  0  0  0  0  0  0  0  0
    8.5421    2.0229    0.0000 H   0  0  0  0  0  0  0  0  0  0  0  0
    6.7893    5.2976    0.0000 H   0  0  0  0  0  0  0  0  0  0  0  0
    5.3864    4.4876    0.0000 H   0  0  0  0  0  0  0  0  0  0  0  0
    2.1923   -4.0958    0.0000 H   0  0  0  0  0  0  0  0  0  0  0  0
    8.5421    5.3322    0.0000 H   0  0  0  0  0  0  0  0  0  0  0  0
    4.8594   -4.9675    0.0000 H   0  0  0  0  0  0  0  0  0  0  0  0
    3.2743   -5.3015    0.0000 H   0  0  0  0  0  0  0  0  0  0  0  0
    9.9911    2.8447    0.0000 H   0  0  0  0  0  0  0  0  0  0  0  0
    9.9911    4.5104    0.0000 H   0  0  0  0  0  0  0  0  0  0  0  0
  1 11  2  0  0  0  0
  4  2  1  1  0  0  0
  2 11  1  0  0  0  0
  2 32  1  0  0  0  0
  3 12  1  0  0  0  0
  3 14  1  0  0  0  0
  3 38  1  0  0  0  0
  4  6  1  0  0  0  0
  4 13  1  0  0  0  0
  4 27  1  0  0  0  0
  5  7  1  0  0  0  0
  5  8  1  0  0  0  0
  5 28  1  0  0  0  0
  5 29  1  0  0  0  0
  6 10  1  0  0  0  0
  6 16  2  0  0  0  0
  7  9  1  0  0  0  0
  7 14  2  0  0  0  0
  8 11  1  0  0  0  0
  8 30  1  0  0  0  0
  8 31  1  0  0  0  0
  9 12  1  0  0  0  0
  9 17  2  0  0  0  0
 10 15  1  0  0  0  0
 10 18  2  0  0  0  0
 12 21  2  0  0  0  0
 13 33  1  0  0  0  0
 13 34  1  0  0  0  0
 13 35  1  0  0  0  0
 14 36  1  0  0  0  0
 15 19  1  0  0  0  0
 15 22  2  0  0  0  0
 16 20  1  0  0  0  0
 16 37  1  0  0  0  0
 17 23  1  0  0  0  0
 17 39  1  0  0  0  0
 18 25  1  0  0  0  0
 18 40  1  0  0  0  0
 19 20  2  0  0  0  0
 19 41  1  0  0  0  0
 20 42  1  0  0  0  0
 21 24  1  0  0  0  0
 21 43  1  0  0  0  0
 22 26  1  0  0  0  0
 22 44  1  0  0  0  0
 23 24  2  0  0  0  0
 23 45  1  0  0  0  0
 24 46  1  0  0  0  0
 25 26  2  0  0  0  0
 25 47  1  0  0  0  0
 26 48  1  0  0  0  0
M  END
> <PUBCHEM_COMPOUND_CID>
25478116

> <PUBCHEM_COMPOUND_CANONICALIZED>
1

> <PUBCHEM_CACTVS_COMPLEXITY>
479

> <PUBCHEM_CACTVS_HBOND_ACCEPTOR>
1

> <PUBCHEM_CACTVS_HBOND_DONOR>
2

> <PUBCHEM_CACTVS_ROTATABLE_BOND>
5

> <PUBCHEM_CACTVS_SUBSKEYS>
AAADceB7IAAAAAAAAAAAAAAAAAAAAWAAAAAwYMAAAAAAAFjB9AAAHgAQAAAADCjBngQ+wPLJkACoAzV3VACCgCAxAiAI2aE4ZJgIIPLAkZGEIAhglgDIyAcYicCOgAACAAASAAAAAAQAACQAAAAAAAAAAA==

> <PUBCHEM_IUPAC_OPENEYE_NAME>
3-(1H-indol-3-yl)-N-[(1R)-1-(1-naphthyl)ethyl]propanamide

> <PUBCHEM_IUPAC_CAS_NAME>
3-(1H-indol-3-yl)-N-[(1R)-1-(1-naphthalenyl)ethyl]propanamide

> <PUBCHEM_IUPAC_NAME>
3-(1H-indol-3-yl)-N-[(1R)-1-naphthalen-1-ylethyl]propanamide

> <PUBCHEM_IUPAC_SYSTEMATIC_NAME>
3-(1H-indol-3-yl)-N-[(1R)-1-naphthalen-1-ylethyl]propanamide

> <PUBCHEM_IUPAC_TRADITIONAL_NAME>
3-(1H-indol-3-yl)-N-[(1R)-1-(1-naphthyl)ethyl]propionamide

> <PUBCHEM_IUPAC_INCHI>
InChI=1S/C23H22N2O/c1-16(19-11-6-8-17-7-2-3-9-20(17)19)25-23(26)14-13-18-15-24-22-12-5-4-10-21(18)22/h2-12,15-16,24H,13-14H2,1H3,(H,25,26)/t16-/m1/s1

> <PUBCHEM_IUPAC_INCHIKEY>
SGDBYEIICIHKNA-MRXNPFEDSA-N

> <PUBCHEM_XLOGP3>
4.6

> <PUBCHEM_EXACT_MASS>
342.173213

> <PUBCHEM_MOLECULAR_FORMULA>
C23H22N2O

> <PUBCHEM_MOLECULAR_WEIGHT>
342.43358

> <PUBCHEM_OPENEYE_CAN_SMILES>
CC(C1=CC=CC2=CC=CC=C21)NC(=O)CCC3=CNC4=CC=CC=C43

> <PUBCHEM_OPENEYE_ISO_SMILES>
C[C@H](C1=CC=CC2=CC=CC=C21)NC(=O)CCC3=CNC4=CC=CC=C43

> <PUBCHEM_CACTVS_TPSA>
44.9

> <PUBCHEM_MONOISOTOPIC_WEIGHT>
342.173213

> <PUBCHEM_TOTAL_CHARGE>
0

> <PUBCHEM_HEAVY_ATOM_COUNT>
26

> <PUBCHEM_ATOM_DEF_STEREO_COUNT>
1

> <PUBCHEM_ATOM_UDEF_STEREO_COUNT>
0

> <PUBCHEM_BOND_DEF_STEREO_COUNT>
0

> <PUBCHEM_BOND_UDEF_STEREO_COUNT>
0

> <PUBCHEM_ISOTOPIC_ATOM_COUNT>
0

> <PUBCHEM_COMPONENT_COUNT>
1

> <PUBCHEM_CACTVS_TAUTO_COUNT>
2

> <PUBCHEM_COORDINATE_TYPE>
1
5
255

> <PUBCHEM_BONDANNOTATIONS>
10  15  8
10  18  8
12  21  8
15  19  8
15  22  8
16  20  8
17  23  8
18  25  8
19  20  8
4  2  5
21  24  8
22  26  8
23  24  8
25  26  8
3  12  8
3  14  8
6  10  8
6  16  8
7  14  8
7  9  8
9  12  8
9  17  8

$$$$
25478120
  -OEChem-12041211272D

 48 51  0     1  0  0  0  0  0999 V2000
    6.7893   -0.3224    0.0000 O   0  0  0  0  0  0  0  0  0  0  0  0
    5.9233    1.1776    0.0000 N   0  0  0  0  0  0  0  0  0  0  0  0
    2.6164   -2.1544    0.0000 N   0  0  0  0  0  0  0  0  0  0  0  0
    6.7893    1.6776    0.0000 C   0  0  2  0  0  0  0  0  0  0  0  0
    5.0573   -1.3224    0.0000 C   0  0  0  0  0  0  0  0  0  0  0  0
    6.7893    2.6776    0.0000 C   0  0  0  0  0  0  0  0  0  0  0  0
    4.1912   -1.8224    0.0000 C   0  0  0  0  0  0  0  0  0  0  0  0
    5.0573   -0.3224    0.0000 C   0  0  0  0  0  0  0  0  0  0  0  0
    4.0882   -2.8112    0.0000 C   0  0  0  0  0  0  0  0  0  0  0  0
    7.6554    3.1776    0.0000 C   0  0  0  0  0  0  0  0  0  0  0  0
    5.9233    0.1776    0.0000 C   0  0  0  0  0  0  0  0  0  0  0  0
    3.1097   -3.0174    0.0000 C   0  0  0  0  0  0  0  0  0  0  0  0
    7.6554    1.1776    0.0000 C   0  0  0  0  0  0  0  0  0  0  0  0
    3.2835   -1.4173    0.0000 C   0  0  0  0  0  0  0  0  0  0  0  0
    7.6554    4.1776    0.0000 C   0  0  0  0  0  0  0  0  0  0  0  0
    5.9233    3.1776    0.0000 C   0  0  0  0  0  0  0  0  0  0  0  0
    4.7560   -3.5555    0.0000 C   0  0  0  0  0  0  0  0  0  0  0  0
    8.5493    2.6429    0.0000 C   0  0  0  0  0  0  0  0  0  0  0  0
    6.7893    4.6776    0.0000 C   0  0  0  0  0  0  0  0  0  0  0  0
    5.9233    4.1776    0.0000 C   0  0  0  0  0  0  0  0  0  0  0  0
    2.7990   -3.9679    0.0000 C   0  0  0  0  0  0  0  0  0  0  0  0
    8.5493    4.7122    0.0000 C   0  0  0  0  0  0  0  0  0  0  0  0
    4.4454   -4.5060    0.0000 C   0  0  0  0  0  0  0  0  0  0  0  0
    3.4669   -4.7122    0.0000 C   0  0  0  0  0  0  0  0  0  0  0  0
    9.4554    3.1567    0.0000 C   0  0  0  0  0  0  0  0  0  0  0  0
    9.4554    4.1984    0.0000 C   0  0  0  0  0  0  0  0  0  0  0  0
    6.7893    1.0576    0.0000 H   0  0  0  0  0  0  0  0  0  0  0  0
    5.2693   -1.9051    0.0000 H   0  0  0  0  0  0  0  0  0  0  0  0
    5.6678   -1.2148    0.0000 H   0  0  0  0  0  0  0  0  0  0  0  0
    4.8452    0.2602    0.0000 H   0  0  0  0  0  0  0  0  0  0  0  0
    4.4467   -0.4301    0.0000 H   0  0  0  0  0  0  0  0  0  0  0  0
    5.3864    1.4876    0.0000 H   0  0  0  0  0  0  0  0  0  0  0  0
    7.3454    0.6406    0.0000 H   0  0  0  0  0  0  0  0  0  0  0  0
    8.1923    0.8676    0.0000 H   0  0  0  0  0  0  0  0  0  0  0  0
    7.9654    1.7145    0.0000 H   0  0  0  0  0  0  0  0  0  0  0  0
    3.1556   -0.8107    0.0000 H   0  0  0  0  0  0  0  0  0  0  0  0
    5.3864    2.8676    0.0000 H   0  0  0  0  0  0  0  0  0  0  0  0
    2.0000   -2.0874    0.0000 H   0  0  0  0  0  0  0  0  0  0  0  0
    5.3627   -3.4276    0.0000 H   0  0  0  0  0  0  0  0  0  0  0  0
    8.5421    2.0229    0.0000 H   0  0  0  0  0  0  0  0  0  0  0  0
    6.7893    5.2976    0.0000 H   0  0  0  0  0  0  0  0  0  0  0  0
    5.3864    4.4876    0.0000 H   0  0  0  0  0  0  0  0  0  0  0  0
    2.1923   -4.0958    0.0000 H   0  0  0  0  0  0  0  0  0  0  0  0
    8.5421    5.3322    0.0000 H   0  0  0  0  0  0  0  0  0  0  0  0
    4.8594   -4.9675    0.0000 H   0  0  0  0  0  0  0  0  0  0  0  0
    3.2743   -5.3015    0.0000 H   0  0  0  0  0  0  0  0  0  0  0  0
    9.9911    2.8447    0.0000 H   0  0  0  0  0  0  0  0  0  0  0  0
    9.9911    4.5104    0.0000 H   0  0  0  0  0  0  0  0  0  0  0  0
  1 11  2  0  0  0  0
  4  2  1  6  0  0  0
  2 11  1  0  0  0  0
  2 32  1  0  0  0  0
  3 12  1  0  0  0  0
  3 14  1  0  0  0  0
  3 38  1  0  0  0  0
  4  6  1  0  0  0  0
  4 13  1  0  0  0  0
  4 27  1  0  0  0  0
  5  7  1  0  0  0  0
  5  8  1  0  0  0  0
  5 28  1  0  0  0  0
  5 29  1  0  0  0  0
  6 10  1  0  0  0  0
  6 16  2  0  0  0  0
  7  9  1  0  0  0  0
  7 14  2  0  0  0  0
  8 11  1  0  0  0  0
  8 30  1  0  0  0  0
  8 31  1  0  0  0  0
  9 12  1  0  0  0  0
  9 17  2  0  0  0  0
 10 15  1  0  0  0  0
 10 18  2  0  0  0  0
 12 21  2  0  0  0  0
 13 33  1  0  0  0  0
 13 34  1  0  0  0  0
 13 35  1  0  0  0  0
 14 36  1  0  0  0  0
 15 19  1  0  0  0  0
 15 22  2  0  0  0  0
 16 20  1  0  0  0  0
 16 37  1  0  0  0  0
 17 23  1  0  0  0  0
 17 39  1  0  0  0  0
 18 25  1  0  0  0  0
 18 40  1  0  0  0  0
 19 20  2  0  0  0  0
 19 41  1  0  0  0  0
 20 42  1  0  0  0  0
 21 24  1  0  0  0  0
 21 43  1  0  0  0  0
 22 26  1  0  0  0  0
 22 44  1  0  0  0  0
 23 24  2  0  0  0  0
 23 45  1  0  0  0  0
 24 46  1  0  0  0  0
 25 26  2  0  0  0  0
 25 47  1  0  0  0  0
 26 48  1  0  0  0  0
M  END
> <PUBCHEM_COMPOUND_CID>
25478120

> <PUBCHEM_COMPOUND_CANONICALIZED>
1

> <PUBCHEM_CACTVS_COMPLEXITY>
479

> <PUBCHEM_CACTVS_HBOND_ACCEPTOR>
1

> <PUBCHEM_CACTVS_HBOND_DONOR>
2

> <PUBCHEM_CACTVS_ROTATABLE_BOND>
5

> <PUBCHEM_CACTVS_SUBSKEYS>
AAADceB7IAAAAAAAAAAAAAAAAAAAAWAAAAAwYMAAAAAAAFjB9AAAHgAQAAAADCjBngQ+wPLJkACoAzV3VACCgCAxAiAI2aE4ZJgIIPLAkZGEIAhglgDIyAcYicCOgAACAAASAAAAAAQAACQAAAAAAAAAAA==

> <PUBCHEM_IUPAC_OPENEYE_NAME>
3-(1H-indol-3-yl)-N-[(1S)-1-(1-naphthyl)ethyl]propanamide

> <PUBCHEM_IUPAC_CAS_NAME>
3-(1H-indol-3-yl)-N-[(1S)-1-(1-naphthalenyl)ethyl]propanamide

> <PUBCHEM_IUPAC_NAME>
3-(1H-indol-3-yl)-N-[(1S)-1-naphthalen-1-ylethyl]propanamide

> <PUBCHEM_IUPAC_SYSTEMATIC_NAME>
3-(1H-indol-3-yl)-N-[(1S)-1-naphthalen-1-ylethyl]propanamide

> <PUBCHEM_IUPAC_TRADITIONAL_NAME>
3-(1H-indol-3-yl)-N-[(1S)-1-(1-naphthyl)ethyl]propionamide

> <PUBCHEM_IUPAC_INCHI>
InChI=1S/C23H22N2O/c1-16(19-11-6-8-17-7-2-3-9-20(17)19)25-23(26)14-13-18-15-24-22-12-5-4-10-21(18)22/h2-12,15-16,24H,13-14H2,1H3,(H,25,26)/t16-/m0/s1

> <PUBCHEM_IUPAC_INCHIKEY>
SGDBYEIICIHKNA-INIZCTEOSA-N

> <PUBCHEM_XLOGP3>
4.6

> <PUBCHEM_EXACT_MASS>
342.173213

> <PUBCHEM_MOLECULAR_FORMULA>
C23H22N2O

> <PUBCHEM_MOLECULAR_WEIGHT>
342.43358

> <PUBCHEM_OPENEYE_CAN_SMILES>
CC(C1=CC=CC2=CC=CC=C21)NC(=O)CCC3=CNC4=CC=CC=C43

> <PUBCHEM_OPENEYE_ISO_SMILES>
C[C@@H](C1=CC=CC2=CC=CC=C21)NC(=O)CCC3=CNC4=CC=CC=C43

> <PUBCHEM_CACTVS_TPSA>
44.9

> <PUBCHEM_MONOISOTOPIC_WEIGHT>
342.173213

> <PUBCHEM_TOTAL_CHARGE>
0

> <PUBCHEM_HEAVY_ATOM_COUNT>
26

> <PUBCHEM_ATOM_DEF_STEREO_COUNT>
1

> <PUBCHEM_ATOM_UDEF_STEREO_COUNT>
0

> <PUBCHEM_BOND_DEF_STEREO_COUNT>
0

> <PUBCHEM_BOND_UDEF_STEREO_COUNT>
0

> <PUBCHEM_ISOTOPIC_ATOM_COUNT>
0

> <PUBCHEM_COMPONENT_COUNT>
1

> <PUBCHEM_CACTVS_TAUTO_COUNT>
2

> <PUBCHEM_COORDINATE_TYPE>
1
5
255

> <PUBCHEM_BONDANNOTATIONS>
10  15  8
10  18  8
12  21  8
15  19  8
15  22  8
16  20  8
17  23  8
18  25  8
19  20  8
4  2  6
21  24  8
22  26  8
23  24  8
25  26  8
3  12  8
3  14  8
6  10  8
6  16  8
7  14  8
7  9  8
9  12  8
9  17  8

$$$$
25480600
  -OEChem-12041211272D

 44 45  0     0  0  0  0  0  0999 V2000
    6.3301   -0.6230    0.0000 S   0  0  0  0  0  0  0  0  0  0  0  0
    4.5981   -3.6230    0.0000 S   0  0  0  0  0  0  0  0  0  0  0  0
    5.4641    3.8770    0.0000 S   0  0  0  0  0  0  0  0  0  0  0  0
    7.3301   -0.6230    0.0000 O   0  0  0  0  0  0  0  0  0  0  0  0
    5.3301   -0.6230    0.0000 O   0  0  0  0  0  0  0  0  0  0  0  0
    2.8660    2.3770    0.0000 O   0  0  0  0  0  0  0  0  0  0  0  0
    5.0981   -4.4890    0.0000 O   0  0  0  0  0  0  0  0  0  0  0  0
    4.0981   -2.7570    0.0000 O   0  0  0  0  0  0  0  0  0  0  0  0
    4.9641    4.7430    0.0000 O   0  0  0  0  0  0  0  0  0  0  0  0
    5.9641    3.0110    0.0000 O   0  0  0  0  0  0  0  0  0  0  0  0
    6.3301    0.3770    0.0000 N   0  0  0  0  0  0  0  0  0  0  0  0
    4.5981    3.3770    0.0000 N   0  0  0  0  0  0  0  0  0  0  0  0
    3.7320   -4.1230    0.0000 N   0  0  0  0  0  0  0  0  0  0  0  0
    6.3301   -1.6230    0.0000 C   0  0  0  0  0  0  0  0  0  0  0  0
    5.4641    0.8770    0.0000 C   0  0  0  0  0  0  0  0  0  0  0  0
    4.5981    2.3770    0.0000 C   0  0  0  0  0  0  0  0  0  0  0  0
    5.4641   -2.1230    0.0000 C   0  0  0  0  0  0  0  0  0  0  0  0
    5.4641   -3.1230    0.0000 C   0  0  0  0  0  0  0  0  0  0  0  0
    5.4641    1.8770    0.0000 C   0  0  0  0  0  0  0  0  0  0  0  0
    7.1962   -2.1230    0.0000 C   0  0  0  0  0  0  0  0  0  0  0  0
    3.7320    1.8770    0.0000 C   0  0  0  0  0  0  0  0  0  0  0  0
    4.5981    0.3770    0.0000 C   0  0  0  0  0  0  0  0  0  0  0  0
    3.7320    0.8770    0.0000 C   0  0  0  0  0  0  0  0  0  0  0  0
    6.3301   -3.6230    0.0000 C   0  0  0  0  0  0  0  0  0  0  0  0
    7.1962   -3.1230    0.0000 C   0  0  0  0  0  0  0  0  0  0  0  0
    6.3301    4.3770    0.0000 C   0  0  0  0  0  0  0  0  0  0  0  0
    2.0000    1.8770    0.0000 C   0  0  0  0  0  0  0  0  0  0  0  0
    6.8671    0.6870    0.0000 H   0  0  0  0  0  0  0  0  0  0  0  0
    4.9272   -1.8130    0.0000 H   0  0  0  0  0  0  0  0  0  0  0  0
    6.0010    2.1870    0.0000 H   0  0  0  0  0  0  0  0  0  0  0  0
    7.7331   -1.8130    0.0000 H   0  0  0  0  0  0  0  0  0  0  0  0
    4.5981   -0.2430    0.0000 H   0  0  0  0  0  0  0  0  0  0  0  0
    4.0611    3.6870    0.0000 H   0  0  0  0  0  0  0  0  0  0  0  0
    3.1951    0.5670    0.0000 H   0  0  0  0  0  0  0  0  0  0  0  0
    6.3301   -4.2430    0.0000 H   0  0  0  0  0  0  0  0  0  0  0  0
    7.7331   -3.4330    0.0000 H   0  0  0  0  0  0  0  0  0  0  0  0
    6.6401    3.8400    0.0000 H   0  0  0  0  0  0  0  0  0  0  0  0
    6.8671    4.6870    0.0000 H   0  0  0  0  0  0  0  0  0  0  0  0
    6.0201    4.9139    0.0000 H   0  0  0  0  0  0  0  0  0  0  0  0
    3.7320   -4.7430    0.0000 H   0  0  0  0  0  0  0  0  0  0  0  0
    3.1951   -3.8130    0.0000 H   0  0  0  0  0  0  0  0  0  0  0  0
    1.6900    2.4139    0.0000 H   0  0  0  0  0  0  0  0  0  0  0  0
    1.4631    1.5670    0.0000 H   0  0  0  0  0  0  0  0  0  0  0  0
    2.3100    1.3400    0.0000 H   0  0  0  0  0  0  0  0  0  0  0  0
  1  4  2  0  0  0  0
  1  5  2  0  0  0  0
  1 11  1  0  0  0  0
  1 14  1  0  0  0  0
  2  7  2  0  0  0  0
  2  8  2  0  0  0  0
  2 13  1  0  0  0  0
  2 18  1  0  0  0  0
  3  9  2  0  0  0  0
  3 10  2  0  0  0  0
  3 12  1  0  0  0  0
  3 26  1  0  0  0  0
  6 21  1  0  0  0  0
  6 27  1  0  0  0  0
 11 15  1  0  0  0  0
 11 28  1  0  0  0  0
 12 16  1  0  0  0  0
 12 33  1  0  0  0  0
 13 40  1  0  0  0  0
 13 41  1  0  0  0  0
 14 17  1  0  0  0  0
 14 20  2  0  0  0  0
 15 19  2  0  0  0  0
 15 22  1  0  0  0  0
 16 19  1  0  0  0  0
 16 21  2  0  0  0  0
 17 18  2  0  0  0  0
 17 29  1  0  0  0  0
 18 24  1  0  0  0  0
 19 30  1  0  0  0  0
 20 25  1  0  0  0  0
 20 31  1  0  0  0  0
 21 23  1  0  0  0  0
 22 23  2  0  0  0  0
 22 32  1  0  0  0  0
 23 34  1  0  0  0  0
 24 25  2  0  0  0  0
 24 35  1  0  0  0  0
 25 36  1  0  0  0  0
 26 37  1  0  0  0  0
 26 38  1  0  0  0  0
 26 39  1  0  0  0  0
 27 42  1  0  0  0  0
 27 43  1  0  0  0  0
 27 44  1  0  0  0  0
M  END
> <PUBCHEM_COMPOUND_CID>
25480600

> <PUBCHEM_COMPOUND_CANONICALIZED>
1

> <PUBCHEM_CACTVS_COMPLEXITY>
810

> <PUBCHEM_CACTVS_HBOND_ACCEPTOR>
10

> <PUBCHEM_CACTVS_HBOND_DONOR>
3

> <PUBCHEM_CACTVS_ROTATABLE_BOND>
7

> <PUBCHEM_CACTVS_SUBSKEYS>
AAADceBzOABgAAAAAAAAAAAAAAAAAAAAAAAwYAAAAAAAAAABQAAAHgQQQAAACAyB0AKyx4BABAKAACRCQHDCCBAgIgAIiBgHbIgOJiKE8duBMCBk0BEI6AewQAAAAEAAAEQAEAAAgAAAiAAgAAAAAAAAAA==

> <PUBCHEM_IUPAC_OPENEYE_NAME>
N3-[3-(methanesulfonamido)-4-methoxy-phenyl]benzene-1,3-disulfonamide

> <PUBCHEM_IUPAC_CAS_NAME>
N3-[3-(methanesulfonamido)-4-methoxyphenyl]benzene-1,3-disulfonamide

> <PUBCHEM_IUPAC_NAME>
3-N-[3-(methanesulfonamido)-4-methoxyphenyl]benzene-1,3-disulfonamide

> <PUBCHEM_IUPAC_SYSTEMATIC_NAME>
N3-[4-methoxy-3-(methylsulfonylamino)phenyl]benzene-1,3-disulfonamide

> <PUBCHEM_IUPAC_TRADITIONAL_NAME>
N'-[3-(methanesulfonamido)-4-methoxy-phenyl]benzene-1,3-disulfonamide

> <PUBCHEM_IUPAC_INCHI>
InChI=1S/C14H17N3O7S3/c1-24-14-7-6-10(8-13(14)17-25(2,18)19)16-27(22,23)12-5-3-4-11(9-12)26(15,20)21/h3-9,16-17H,1-2H3,(H2,15,20,21)

> <PUBCHEM_IUPAC_INCHIKEY>
PYBZIERRBDQEIO-UHFFFAOYSA-N

> <PUBCHEM_XLOGP3>
-0.2

> <PUBCHEM_EXACT_MASS>
435.022863

> <PUBCHEM_MOLECULAR_FORMULA>
C14H17N3O7S3

> <PUBCHEM_MOLECULAR_WEIGHT>
435.49568

> <PUBCHEM_OPENEYE_CAN_SMILES>
COC1=C(C=C(C=C1)NS(=O)(=O)C2=CC=CC(=C2)S(=O)(=O)N)NS(=O)(=O)C

> <PUBCHEM_OPENEYE_ISO_SMILES>
COC1=C(C=C(C=C1)NS(=O)(=O)C2=CC=CC(=C2)S(=O)(=O)N)NS(=O)(=O)C

> <PUBCHEM_CACTVS_TPSA>
187

> <PUBCHEM_MONOISOTOPIC_WEIGHT>
435.022863

> <PUBCHEM_TOTAL_CHARGE>
0

> <PUBCHEM_HEAVY_ATOM_COUNT>
27

> <PUBCHEM_ATOM_DEF_STEREO_COUNT>
0

> <PUBCHEM_ATOM_UDEF_STEREO_COUNT>
0

> <PUBCHEM_BOND_DEF_STEREO_COUNT>
0

> <PUBCHEM_BOND_UDEF_STEREO_COUNT>
0

> <PUBCHEM_ISOTOPIC_ATOM_COUNT>
0

> <PUBCHEM_COMPONENT_COUNT>
1

> <PUBCHEM_CACTVS_TAUTO_COUNT>
1

> <PUBCHEM_COORDINATE_TYPE>
1
5
255

> <PUBCHEM_BONDANNOTATIONS>
14  17  8
14  20  8
15  19  8
15  22  8
16  19  8
16  21  8
17  18  8
18  24  8
20  25  8
21  23  8
22  23  8
24  25  8

$$$$
25495411
  -OEChem-12041211282D

 55 58  0     0  0  0  0  0  0999 V2000
    7.9244   -0.8645    0.0000 O   0  0  0  0  0  0  0  0  0  0  0  0
    9.4778    3.8881    0.0000 N   0  3  0  0  0  0  0  0  0  0  0  0
    6.2781   -0.3264    0.0000 N   0  0  0  0  0  0  0  0  0  0  0  0
    4.6783   -4.0431    0.0000 N   0  0  0  0  0  0  0  0  0  0  0  0
    9.6840    2.9096    0.0000 C   0  0  0  0  0  0  0  0  0  0  0  0
   10.2221    4.5560    0.0000 C   0  0  0  0  0  0  0  0  0  0  0  0
   10.6345    2.5990    0.0000 C   0  0  0  0  0  0  0  0  0  0  0  0
   11.1726    4.2453    0.0000 C   0  0  0  0  0  0  0  0  0  0  0  0
   11.3788    3.2668    0.0000 C   0  0  0  0  0  0  0  0  0  0  0  0
    8.4993    3.6819    0.0000 C   0  0  0  0  0  0  0  0  0  0  0  0
    8.1886    2.7314    0.0000 C   0  0  0  0  0  0  0  0  0  0  0  0
    7.2101    2.5252    0.0000 C   0  0  0  0  0  0  0  0  0  0  0  0
    8.8564    1.9871    0.0000 C   0  0  0  0  0  0  0  0  0  0  0  0
    6.8994    1.5747    0.0000 C   0  0  0  0  0  0  0  0  0  0  0  0
    8.5458    1.0366    0.0000 C   0  0  0  0  0  0  0  0  0  0  0  0
    7.5673    0.8304    0.0000 C   0  0  0  0  0  0  0  0  0  0  0  0
    4.9889   -1.4831    0.0000 C   0  0  0  0  0  0  0  0  0  0  0  0
    4.6783   -2.4336    0.0000 C   0  0  0  0  0  0  0  0  0  0  0  0
    7.2566   -0.1202    0.0000 C   0  0  0  0  0  0  0  0  0  0  0  0
    5.9674   -1.2769    0.0000 C   0  0  0  0  0  0  0  0  0  0  0  0
    3.7320   -2.7384    0.0000 C   0  0  0  0  0  0  0  0  0  0  0  0
    3.7320   -3.7384    0.0000 C   0  0  0  0  0  0  0  0  0  0  0  0
    5.2619   -3.2384    0.0000 C   0  0  0  0  0  0  0  0  0  0  0  0
    2.8660   -2.2384    0.0000 C   0  0  0  0  0  0  0  0  0  0  0  0
    2.8660   -4.2384    0.0000 C   0  0  0  0  0  0  0  0  0  0  0  0
    2.0000   -2.7384    0.0000 C   0  0  0  0  0  0  0  0  0  0  0  0
    2.0000   -3.7384    0.0000 C   0  0  0  0  0  0  0  0  0  0  0  0
    8.8099    4.6324    0.0000 H   0  0  0  0  0  0  0  0  0  0  0  0
    9.0643    2.8891    0.0000 H   0  0  0  0  0  0  0  0  0  0  0  0
    9.5966    2.2958    0.0000 H   0  0  0  0  0  0  0  0  0  0  0  0
   10.5141    5.1029    0.0000 H   0  0  0  0  0  0  0  0  0  0  0  0
    9.7342    4.9385    0.0000 H   0  0  0  0  0  0  0  0  0  0  0  0
   10.3425    2.0520    0.0000 H   0  0  0  0  0  0  0  0  0  0  0  0
   11.1224    2.2164    0.0000 H   0  0  0  0  0  0  0  0  0  0  0  0
   11.7922    4.2659    0.0000 H   0  0  0  0  0  0  0  0  0  0  0  0
   11.2599    4.8591    0.0000 H   0  0  0  0  0  0  0  0  0  0  0  0
   11.7064    2.7404    0.0000 H   0  0  0  0  0  0  0  0  0  0  0  0
   11.9541    3.4981    0.0000 H   0  0  0  0  0  0  0  0  0  0  0  0
    8.4787    4.3016    0.0000 H   0  0  0  0  0  0  0  0  0  0  0  0
    7.8854    3.7693    0.0000 H   0  0  0  0  0  0  0  0  0  0  0  0
    6.7960    2.9866    0.0000 H   0  0  0  0  0  0  0  0  0  0  0  0
    9.4631    2.1150    0.0000 H   0  0  0  0  0  0  0  0  0  0  0  0
    6.2928    1.4468    0.0000 H   0  0  0  0  0  0  0  0  0  0  0  0
    8.9598    0.5751    0.0000 H   0  0  0  0  0  0  0  0  0  0  0  0
    4.9684   -0.8635    0.0000 H   0  0  0  0  0  0  0  0  0  0  0  0
    4.3751   -1.3958    0.0000 H   0  0  0  0  0  0  0  0  0  0  0  0
    5.9880   -1.8966    0.0000 H   0  0  0  0  0  0  0  0  0  0  0  0
    6.5812   -1.3643    0.0000 H   0  0  0  0  0  0  0  0  0  0  0  0
    5.8640    0.1351    0.0000 H   0  0  0  0  0  0  0  0  0  0  0  0
    5.8819   -3.2384    0.0000 H   0  0  0  0  0  0  0  0  0  0  0  0
    4.8709   -4.6324    0.0000 H   0  0  0  0  0  0  0  0  0  0  0  0
    2.8660   -1.6184    0.0000 H   0  0  0  0  0  0  0  0  0  0  0  0
    2.8660   -4.8584    0.0000 H   0  0  0  0  0  0  0  0  0  0  0  0
    1.4631   -2.4284    0.0000 H   0  0  0  0  0  0  0  0  0  0  0  0
    1.4631   -4.0484    0.0000 H   0  0  0  0  0  0  0  0  0  0  0  0
  1 19  2  0  0  0  0
  2  5  1  0  0  0  0
  2  6  1  0  0  0  0
  2 10  1  0  0  0  0
  2 28  1  0  0  0  0
  3 19  1  0  0  0  0
  3 20  1  0  0  0  0
  3 49  1  0  0  0  0
  4 22  1  0  0  0  0
  4 23  1  0  0  0  0
  4 51  1  0  0  0  0
  5  7  1  0  0  0  0
  5 29  1  0  0  0  0
  5 30  1  0  0  0  0
  6  8  1  0  0  0  0
  6 31  1  0  0  0  0
  6 32  1  0  0  0  0
  7  9  1  0  0  0  0
  7 33  1  0  0  0  0
  7 34  1  0  0  0  0
  8  9  1  0  0  0  0
  8 35  1  0  0  0  0
  8 36  1  0  0  0  0
  9 37  1  0  0  0  0
  9 38  1  0  0  0  0
 10 11  1  0  0  0  0
 10 39  1  0  0  0  0
 10 40  1  0  0  0  0
 11 12  2  0  0  0  0
 11 13  1  0  0  0  0
 12 14  1  0  0  0  0
 12 41  1  0  0  0  0
 13 15  2  0  0  0  0
 13 42  1  0  0  0  0
 14 16  2  0  0  0  0
 14 43  1  0  0  0  0
 15 16  1  0  0  0  0
 15 44  1  0  0  0  0
 16 19  1  0  0  0  0
 17 18  1  0  0  0  0
 17 20  1  0  0  0  0
 17 45  1  0  0  0  0
 17 46  1  0  0  0  0
 18 21  1  0  0  0  0
 18 23  2  0  0  0  0
 20 47  1  0  0  0  0
 20 48  1  0  0  0  0
 21 22  1  0  0  0  0
 21 24  2  0  0  0  0
 22 25  2  0  0  0  0
 23 50  1  0  0  0  0
 24 26  1  0  0  0  0
 24 52  1  0  0  0  0
 25 27  1  0  0  0  0
 25 53  1  0  0  0  0
 26 27  2  0  0  0  0
 26 54  1  0  0  0  0
 27 55  1  0  0  0  0
M  CHG  1   2   1
M  END
> <PUBCHEM_COMPOUND_CID>
25495411

> <PUBCHEM_COMPOUND_CANONICALIZED>
1

> <PUBCHEM_CACTVS_COMPLEXITY>
468

> <PUBCHEM_CACTVS_HBOND_ACCEPTOR>
1

> <PUBCHEM_CACTVS_HBOND_DONOR>
3

> <PUBCHEM_CACTVS_ROTATABLE_BOND>
6

> <PUBCHEM_CACTVS_SUBSKEYS>
AAADceB7IAAAAAAAAAAAAAAAAAAAAWAAAAA8YIAAAAAAAFgB9AAAHgAQAAAADAjBngQ8wPPJkACoAzV3VACCgCA1AiAI2aE4ZNgIIPLAlZGEIQhglgDIyYcYiMCOwAAAAAACAACAAAAAAAQAAAAAAAAAAA==

> <PUBCHEM_IUPAC_OPENEYE_NAME>
N-[2-(1H-indol-3-yl)ethyl]-4-(piperidin-1-ium-1-ylmethyl)benzamide

> <PUBCHEM_IUPAC_CAS_NAME>
N-[2-(1H-indol-3-yl)ethyl]-4-(1-piperidin-1-iumylmethyl)benzamide

> <PUBCHEM_IUPAC_NAME>
N-[2-(1H-indol-3-yl)ethyl]-4-(piperidin-1-ium-1-ylmethyl)benzamide

> <PUBCHEM_IUPAC_SYSTEMATIC_NAME>
N-[2-(1H-indol-3-yl)ethyl]-4-(piperidin-1-ium-1-ylmethyl)benzamide

> <PUBCHEM_IUPAC_TRADITIONAL_NAME>
N-[2-(1H-indol-3-yl)ethyl]-4-(piperidin-1-ium-1-ylmethyl)benzamide

> <PUBCHEM_IUPAC_INCHI>
InChI=1S/C23H27N3O/c27-23(24-13-12-20-16-25-22-7-3-2-6-21(20)22)19-10-8-18(9-11-19)17-26-14-4-1-5-15-26/h2-3,6-11,16,25H,1,4-5,12-15,17H2,(H,24,27)/p+1

> <PUBCHEM_IUPAC_INCHIKEY>
AFGUKYKFIDVWMB-UHFFFAOYSA-O

> <PUBCHEM_XLOGP3>
4.1

> <PUBCHEM_EXACT_MASS>
362.223238

> <PUBCHEM_MOLECULAR_FORMULA>
C23H28N3O+

> <PUBCHEM_MOLECULAR_WEIGHT>
362.48792

> <PUBCHEM_OPENEYE_CAN_SMILES>
C1CC[NH+](CC1)CC2=CC=C(C=C2)C(=O)NCCC3=CNC4=CC=CC=C43

> <PUBCHEM_OPENEYE_ISO_SMILES>
C1CC[NH+](CC1)CC2=CC=C(C=C2)C(=O)NCCC3=CNC4=CC=CC=C43

> <PUBCHEM_CACTVS_TPSA>
49.3

> <PUBCHEM_MONOISOTOPIC_WEIGHT>
362.223238

> <PUBCHEM_TOTAL_CHARGE>
1

> <PUBCHEM_HEAVY_ATOM_COUNT>
27

> <PUBCHEM_ATOM_DEF_STEREO_COUNT>
0

> <PUBCHEM_ATOM_UDEF_STEREO_COUNT>
0

> <PUBCHEM_BOND_DEF_STEREO_COUNT>
0

> <PUBCHEM_BOND_UDEF_STEREO_COUNT>
0

> <PUBCHEM_ISOTOPIC_ATOM_COUNT>
0

> <PUBCHEM_COMPONENT_COUNT>
1

> <PUBCHEM_CACTVS_TAUTO_COUNT>
2

> <PUBCHEM_COORDINATE_TYPE>
1
5
255

> <PUBCHEM_BONDANNOTATIONS>
11  12  8
11  13  8
12  14  8
13  15  8
14  16  8
15  16  8
18  21  8
18  23  8
21  22  8
21  24  8
22  25  8
24  26  8
25  27  8
26  27  8
4  22  8
4  23  8

$$$$
