30725160
  -OEChem-12041211412D

 30 31  0     0  0  0  0  0  0999 V2000
    2.8660   -0.2315    0.0000 N   0  0  0  0  0  0  0  0  0  0  0  0
    2.8660   -2.2315    0.0000 N   0  3  0  0  0  0  0  0  0  0  0  0
    2.0000   -0.7315    0.0000 C   0  0  0  0  0  0  0  0  0  0  0  0
    3.7320   -0.7315    0.0000 C   0  0  0  0  0  0  0  0  0  0  0  0
    2.0000   -1.7315    0.0000 C   0  0  0  0  0  0  0  0  0  0  0  0
    3.7320   -1.7315    0.0000 C   0  0  0  0  0  0  0  0  0  0  0  0
    2.8660    0.7685    0.0000 C   0  0  0  0  0  0  0  0  0  0  0  0
    3.7320    1.2685    0.0000 C   0  0  0  0  0  0  0  0  0  0  0  0
    4.5981    0.7685    0.0000 C   0  0  0  0  0  0  0  0  0  0  0  0
    3.7320    2.2685    0.0000 C   0  0  0  0  0  0  0  0  0  0  0  0
    5.4641    1.2685    0.0000 C   0  0  0  0  0  0  0  0  0  0  0  0
    4.5981    2.7685    0.0000 C   0  0  0  0  0  0  0  0  0  0  0  0
    5.4641    2.2685    0.0000 C   0  0  0  0  0  0  0  0  0  0  0  0
    1.7880   -0.1489    0.0000 H   0  0  0  0  0  0  0  0  0  0  0  0
    1.3894   -0.8392    0.0000 H   0  0  0  0  0  0  0  0  0  0  0  0
    4.3426   -0.8392    0.0000 H   0  0  0  0  0  0  0  0  0  0  0  0
    3.9441   -0.1489    0.0000 H   0  0  0  0  0  0  0  0  0  0  0  0
    1.3894   -1.6239    0.0000 H   0  0  0  0  0  0  0  0  0  0  0  0
    1.7880   -2.3141    0.0000 H   0  0  0  0  0  0  0  0  0  0  0  0
    3.9441   -2.3141    0.0000 H   0  0  0  0  0  0  0  0  0  0  0  0
    4.3426   -1.6239    0.0000 H   0  0  0  0  0  0  0  0  0  0  0  0
    2.5560   -2.7685    0.0000 H   0  0  0  0  0  0  0  0  0  0  0  0
    3.1760   -2.7685    0.0000 H   0  0  0  0  0  0  0  0  0  0  0  0
    2.6540    1.3511    0.0000 H   0  0  0  0  0  0  0  0  0  0  0  0
    2.2554    0.6608    0.0000 H   0  0  0  0  0  0  0  0  0  0  0  0
    4.5981    0.1485    0.0000 H   0  0  0  0  0  0  0  0  0  0  0  0
    3.1951    2.5785    0.0000 H   0  0  0  0  0  0  0  0  0  0  0  0
    6.0010    0.9585    0.0000 H   0  0  0  0  0  0  0  0  0  0  0  0
    4.5981    3.3885    0.0000 H   0  0  0  0  0  0  0  0  0  0  0  0
    6.0010    2.5785    0.0000 H   0  0  0  0  0  0  0  0  0  0  0  0
  1  3  1  0  0  0  0
  1  4  1  0  0  0  0
  1  7  1  0  0  0  0
  2  5  1  0  0  0  0
  2  6  1  0  0  0  0
  2 22  1  0  0  0  0
  2 23  1  0  0  0  0
  3  5  1  0  0  0  0
  3 14  1  0  0  0  0
  3 15  1  0  0  0  0
  4  6  1  0  0  0  0
  4 16  1  0  0  0  0
  4 17  1  0  0  0  0
  5 18  1  0  0  0  0
  5 19  1  0  0  0  0
  6 20  1  0  0  0  0
  6 21  1  0  0  0  0
  7  8  1  0  0  0  0
  7 24  1  0  0  0  0
  7 25  1  0  0  0  0
  8  9  2  0  0  0  0
  8 10  1  0  0  0  0
  9 11  1  0  0  0  0
  9 26  1  0  0  0  0
 10 12  2  0  0  0  0
 10 27  1  0  0  0  0
 11 13  2  0  0  0  0
 11 28  1  0  0  0  0
 12 13  1  0  0  0  0
 12 29  1  0  0  0  0
 13 30  1  0  0  0  0
M  CHG  1   2   1
M  END
> <PUBCHEM_COMPOUND_CID>
30725160

> <PUBCHEM_COMPOUND_CANONICALIZED>
1

> <PUBCHEM_CACTVS_COMPLEXITY>
135

> <PUBCHEM_CACTVS_HBOND_ACCEPTOR>
1

> <PUBCHEM_CACTVS_HBOND_DONOR>
1

> <PUBCHEM_CACTVS_ROTATABLE_BOND>
2

> <PUBCHEM_CACTVS_SUBSKEYS>
AAADceBzAAAAAAAAAAAAAAAAAAAAAAAAAAA8QAAAAAAAAAABAAAAHAAQAAAADADBGAQwAIPAAACAAiBCAACCAAAgAAAIiIAIBIgIYCKAkRGUIAhgkACIiAcQgAAOAAAAAAAAAAAAAAAAAAAAAAAAAAAAAA==

> <PUBCHEM_IUPAC_OPENEYE_NAME>
1-benzylpiperazin-4-ium

> <PUBCHEM_IUPAC_CAS_NAME>
1-(phenylmethyl)piperazin-4-ium

> <PUBCHEM_IUPAC_NAME>
1-benzylpiperazin-4-ium

> <PUBCHEM_IUPAC_SYSTEMATIC_NAME>
1-(phenylmethyl)piperazin-4-ium

> <PUBCHEM_IUPAC_TRADITIONAL_NAME>
1-benzylpiperazin-4-ium

> <PUBCHEM_IUPAC_INCHI>
InChI=1S/C11H16N2/c1-2-4-11(5-3-1)10-13-8-6-12-7-9-13/h1-5,12H,6-10H2/p+1

> <PUBCHEM_IUPAC_INCHIKEY>
IQXXEPZFOOTTBA-UHFFFAOYSA-O

> <PUBCHEM_XLOGP3>
1.3

> <PUBCHEM_EXACT_MASS>
177.139174

> <PUBCHEM_MOLECULAR_FORMULA>
C11H17N2+

> <PUBCHEM_MOLECULAR_WEIGHT>
177.26608

> <PUBCHEM_OPENEYE_CAN_SMILES>
C1CN(CC[NH2+]1)CC2=CC=CC=C2

> <PUBCHEM_OPENEYE_ISO_SMILES>
C1CN(CC[NH2+]1)CC2=CC=CC=C2

> <PUBCHEM_CACTVS_TPSA>
19.8

> <PUBCHEM_MONOISOTOPIC_WEIGHT>
177.139174

> <PUBCHEM_TOTAL_CHARGE>
1

> <PUBCHEM_HEAVY_ATOM_COUNT>
13

> <PUBCHEM_ATOM_DEF_STEREO_COUNT>
0

> <PUBCHEM_ATOM_UDEF_STEREO_COUNT>
0

> <PUBCHEM_BOND_DEF_STEREO_COUNT>
0

> <PUBCHEM_BOND_UDEF_STEREO_COUNT>
0

> <PUBCHEM_ISOTOPIC_ATOM_COUNT>
0

> <PUBCHEM_COMPONENT_COUNT>
1

> <PUBCHEM_CACTVS_TAUTO_COUNT>
1

> <PUBCHEM_COORDINATE_TYPE>
1
5
255

> <PUBCHEM_BONDANNOTATIONS>
10  12  8
11  13  8
12  13  8
8  10  8
8  9  8
9  11  8

$$$$
30734484
  -OEChem-12041211412D

 38 38  0     0  0  0  0  0  0999 V2000
    2.8660   -1.0000    0.0000 O   0  0  0  0  0  0  0  0  0  0  0  0
    4.5981   -1.0000    0.0000 N   0  0  0  0  0  0  0  0  0  0  0  0
    4.5981    3.0000    0.0000 C   0  0  0  0  0  0  0  0  0  0  0  0
    4.5981    2.0000    0.0000 C   0  0  0  0  0  0  0  0  0  0  0  0
    4.5981    4.0000    0.0000 C   0  0  0  0  0  0  0  0  0  0  0  0
    5.5981    3.0000    0.0000 C   0  0  0  0  0  0  0  0  0  0  0  0
    3.5981    3.0000    0.0000 C   0  0  0  0  0  0  0  0  0  0  0  0
    3.7320    1.5000    0.0000 C   0  0  0  0  0  0  0  0  0  0  0  0
    5.4641    1.5000    0.0000 C   0  0  0  0  0  0  0  0  0  0  0  0
    3.7320    0.5000    0.0000 C   0  0  0  0  0  0  0  0  0  0  0  0
    5.4641    0.5000    0.0000 C   0  0  0  0  0  0  0  0  0  0  0  0
    4.5981    0.0000    0.0000 C   0  0  0  0  0  0  0  0  0  0  0  0
    3.7320   -1.5000    0.0000 C   0  0  0  0  0  0  0  0  0  0  0  0
    3.7320   -2.5000    0.0000 C   0  0  0  0  0  0  0  0  0  0  0  0
    2.8660   -3.0000    0.0000 C   0  0  0  0  0  0  0  0  0  0  0  0
    2.8660   -4.0000    0.0000 C   0  0  0  0  0  0  0  0  0  0  0  0
    2.0000   -2.5000    0.0000 C   0  0  0  0  0  0  0  0  0  0  0  0
    3.5981    3.6200    0.0000 H   0  0  0  0  0  0  0  0  0  0  0  0
    2.9781    3.0000    0.0000 H   0  0  0  0  0  0  0  0  0  0  0  0
    3.5981    2.3800    0.0000 H   0  0  0  0  0  0  0  0  0  0  0  0
    5.5981    2.3800    0.0000 H   0  0  0  0  0  0  0  0  0  0  0  0
    5.2181    4.0000    0.0000 H   0  0  0  0  0  0  0  0  0  0  0  0
    4.5981    4.6200    0.0000 H   0  0  0  0  0  0  0  0  0  0  0  0
    3.9781    4.0000    0.0000 H   0  0  0  0  0  0  0  0  0  0  0  0
    6.2181    3.0000    0.0000 H   0  0  0  0  0  0  0  0  0  0  0  0
    5.5981    3.6200    0.0000 H   0  0  0  0  0  0  0  0  0  0  0  0
    3.1951    1.8100    0.0000 H   0  0  0  0  0  0  0  0  0  0  0  0
    6.0010    1.8100    0.0000 H   0  0  0  0  0  0  0  0  0  0  0  0
    3.1951    0.1900    0.0000 H   0  0  0  0  0  0  0  0  0  0  0  0
    6.0010    0.1900    0.0000 H   0  0  0  0  0  0  0  0  0  0  0  0
    5.1350   -1.3100    0.0000 H   0  0  0  0  0  0  0  0  0  0  0  0
    4.2690   -2.8100    0.0000 H   0  0  0  0  0  0  0  0  0  0  0  0
    2.2460   -4.0000    0.0000 H   0  0  0  0  0  0  0  0  0  0  0  0
    2.3100   -1.9631    0.0000 H   0  0  0  0  0  0  0  0  0  0  0  0
    1.4631   -2.1900    0.0000 H   0  0  0  0  0  0  0  0  0  0  0  0
    1.6900   -3.0369    0.0000 H   0  0  0  0  0  0  0  0  0  0  0  0
    2.8660   -4.6200    0.0000 H   0  0  0  0  0  0  0  0  0  0  0  0
    3.4860   -4.0000    0.0000 H   0  0  0  0  0  0  0  0  0  0  0  0
  1 13  2  0  0  0  0
  2 12  1  0  0  0  0
  2 13  1  0  0  0  0
  2 31  1  0  0  0  0
  3  4  1  0  0  0  0
  3  5  1  0  0  0  0
  3  6  1  0  0  0  0
  3  7  1  0  0  0  0
  4  8  2  0  0  0  0
  4  9  1  0  0  0  0
  5 22  1  0  0  0  0
  5 23  1  0  0  0  0
  5 24  1  0  0  0  0
  6 21  1  0  0  0  0
  6 25  1  0  0  0  0
  6 26  1  0  0  0  0
  7 18  1  0  0  0  0
  7 19  1  0  0  0  0
  7 20  1  0  0  0  0
  8 10  1  0  0  0  0
  8 27  1  0  0  0  0
  9 11  2  0  0  0  0
  9 28  1  0  0  0  0
 10 12  2  0  0  0  0
 10 29  1  0  0  0  0
 11 12  1  0  0  0  0
 11 30  1  0  0  0  0
 13 14  1  0  0  0  0
 14 15  2  0  0  0  0
 14 32  1  0  0  0  0
 15 16  1  0  0  0  0
 15 17  1  0  0  0  0
 16 33  1  0  0  0  0
 16 37  1  0  0  0  0
 16 38  1  0  0  0  0
 17 34  1  0  0  0  0
 17 35  1  0  0  0  0
 17 36  1  0  0  0  0
M  END
> <PUBCHEM_COMPOUND_CID>
30734484

> <PUBCHEM_COMPOUND_CANONICALIZED>
1

> <PUBCHEM_CACTVS_COMPLEXITY>
287

> <PUBCHEM_CACTVS_HBOND_ACCEPTOR>
1

> <PUBCHEM_CACTVS_HBOND_DONOR>
1

> <PUBCHEM_CACTVS_ROTATABLE_BOND>
3

> <PUBCHEM_CACTVS_SUBSKEYS>
AAADceByIAAAAAAAAAAAAAAAAAAAAAAAAAAwAAAAAAAAAAABAAAAHgAQAAAADgiBmAAywILAAACIAiVSUACCAAAhAgAIiAAAZMgIICLAkZGEIAhglADIyQcQgMAPiAAAAAAAAAAQAAAAAAAAAAAAAAAAAA==

> <PUBCHEM_IUPAC_OPENEYE_NAME>
N-(4-tert-butylphenyl)-3-methyl-but-2-enamide

> <PUBCHEM_IUPAC_CAS_NAME>
N-(4-tert-butylphenyl)-3-methyl-2-butenamide

> <PUBCHEM_IUPAC_NAME>
N-(4-tert-butylphenyl)-3-methylbut-2-enamide

> <PUBCHEM_IUPAC_SYSTEMATIC_NAME>
N-(4-tert-butylphenyl)-3-methyl-but-2-enamide

> <PUBCHEM_IUPAC_TRADITIONAL_NAME>
N-(4-tert-butylphenyl)-3-methyl-but-2-enamide

> <PUBCHEM_IUPAC_INCHI>
InChI=1S/C15H21NO/c1-11(2)10-14(17)16-13-8-6-12(7-9-13)15(3,4)5/h6-10H,1-5H3,(H,16,17)

> <PUBCHEM_IUPAC_INCHIKEY>
WTGAHBRZMJNFAS-UHFFFAOYSA-N

> <PUBCHEM_XLOGP3>
4.5

> <PUBCHEM_EXACT_MASS>
231.162314

> <PUBCHEM_MOLECULAR_FORMULA>
C15H21NO

> <PUBCHEM_MOLECULAR_WEIGHT>
231.33334

> <PUBCHEM_OPENEYE_CAN_SMILES>
CC(=CC(=O)NC1=CC=C(C=C1)C(C)(C)C)C

> <PUBCHEM_OPENEYE_ISO_SMILES>
CC(=CC(=O)NC1=CC=C(C=C1)C(C)(C)C)C

> <PUBCHEM_CACTVS_TPSA>
29.1

> <PUBCHEM_MONOISOTOPIC_WEIGHT>
231.162314

> <PUBCHEM_TOTAL_CHARGE>
0

> <PUBCHEM_HEAVY_ATOM_COUNT>
17

> <PUBCHEM_ATOM_DEF_STEREO_COUNT>
0

> <PUBCHEM_ATOM_UDEF_STEREO_COUNT>
0

> <PUBCHEM_BOND_DEF_STEREO_COUNT>
0

> <PUBCHEM_BOND_UDEF_STEREO_COUNT>
0

> <PUBCHEM_ISOTOPIC_ATOM_COUNT>
0

> <PUBCHEM_COMPONENT_COUNT>
1

> <PUBCHEM_CACTVS_TAUTO_COUNT>
2

> <PUBCHEM_COORDINATE_TYPE>
1
5
255

> <PUBCHEM_BONDANNOTATIONS>
10  12  8
11  12  8
4  8  8
4  9  8
8  10  8
9  11  8

$$$$
30735404
  -OEChem-12041211412D

 36 37  0     0  0  0  0  0  0999 V2000
    7.9244    0.4582    0.0000 O   0  0  0  0  0  0  0  0  0  0  0  0
    4.6783   -2.7204    0.0000 N   0  0  0  0  0  0  0  0  0  0  0  0
    6.2781    0.9963    0.0000 N   0  0  0  0  0  0  0  0  0  0  0  0
    4.6783   -1.1110    0.0000 C   0  0  0  0  0  0  0  0  0  0  0  0
    4.9889   -0.1605    0.0000 C   0  0  0  0  0  0  0  0  0  0  0  0
    3.7320   -1.4157    0.0000 C   0  0  0  0  0  0  0  0  0  0  0  0
    3.7320   -2.4157    0.0000 C   0  0  0  0  0  0  0  0  0  0  0  0
    5.9674    0.0458    0.0000 C   0  0  0  0  0  0  0  0  0  0  0  0
    5.2619   -1.9157    0.0000 C   0  0  0  0  0  0  0  0  0  0  0  0
    2.8660   -0.9157    0.0000 C   0  0  0  0  0  0  0  0  0  0  0  0
    2.8660   -2.9157    0.0000 C   0  0  0  0  0  0  0  0  0  0  0  0
    2.0000   -1.4157    0.0000 C   0  0  0  0  0  0  0  0  0  0  0  0
    2.0000   -2.4157    0.0000 C   0  0  0  0  0  0  0  0  0  0  0  0
    7.2566    1.2025    0.0000 C   0  0  0  0  0  0  0  0  0  0  0  0
    7.5673    2.1530    0.0000 C   0  0  0  0  0  0  0  0  0  0  0  0
    8.5458    2.3592    0.0000 C   0  0  0  0  0  0  0  0  0  0  0  0
    8.8564    3.3098    0.0000 C   0  0  0  0  0  0  0  0  0  0  0  0
    9.2136    1.6149    0.0000 C   0  0  0  0  0  0  0  0  0  0  0  0
    4.9684    0.4592    0.0000 H   0  0  0  0  0  0  0  0  0  0  0  0
    4.3751   -0.0731    0.0000 H   0  0  0  0  0  0  0  0  0  0  0  0
    5.9880   -0.5739    0.0000 H   0  0  0  0  0  0  0  0  0  0  0  0
    6.5812   -0.0416    0.0000 H   0  0  0  0  0  0  0  0  0  0  0  0
    5.8819   -1.9157    0.0000 H   0  0  0  0  0  0  0  0  0  0  0  0
    4.8709   -3.3098    0.0000 H   0  0  0  0  0  0  0  0  0  0  0  0
    2.8660   -0.2957    0.0000 H   0  0  0  0  0  0  0  0  0  0  0  0
    2.8660   -3.5357    0.0000 H   0  0  0  0  0  0  0  0  0  0  0  0
    5.8640    1.4578    0.0000 H   0  0  0  0  0  0  0  0  0  0  0  0
    1.4631   -1.1057    0.0000 H   0  0  0  0  0  0  0  0  0  0  0  0
    1.4631   -2.7257    0.0000 H   0  0  0  0  0  0  0  0  0  0  0  0
    7.1532    2.6145    0.0000 H   0  0  0  0  0  0  0  0  0  0  0  0
    9.4458    3.1172    0.0000 H   0  0  0  0  0  0  0  0  0  0  0  0
    8.7522    1.2009    0.0000 H   0  0  0  0  0  0  0  0  0  0  0  0
    9.6277    1.1535    0.0000 H   0  0  0  0  0  0  0  0  0  0  0  0
    9.6751    2.0290    0.0000 H   0  0  0  0  0  0  0  0  0  0  0  0
    9.0490    3.8991    0.0000 H   0  0  0  0  0  0  0  0  0  0  0  0
    8.2671    3.5024    0.0000 H   0  0  0  0  0  0  0  0  0  0  0  0
  1 14  2  0  0  0  0
  2  7  1  0  0  0  0
  2  9  1  0  0  0  0
  2 24  1  0  0  0  0
  3  8  1  0  0  0  0
  3 14  1  0  0  0  0
  3 27  1  0  0  0  0
  4  5  1  0  0  0  0
  4  6  1  0  0  0  0
  4  9  2  0  0  0  0
  5  8  1  0  0  0  0
  5 19  1  0  0  0  0
  5 20  1  0  0  0  0
  6  7  1  0  0  0  0
  6 10  2  0  0  0  0
  7 11  2  0  0  0  0
  8 21  1  0  0  0  0
  8 22  1  0  0  0  0
  9 23  1  0  0  0  0
 10 12  1  0  0  0  0
 10 25  1  0  0  0  0
 11 13  1  0  0  0  0
 11 26  1  0  0  0  0
 12 13  2  0  0  0  0
 12 28  1  0  0  0  0
 13 29  1  0  0  0  0
 14 15  1  0  0  0  0
 15 16  2  0  0  0  0
 15 30  1  0  0  0  0
 16 17  1  0  0  0  0
 16 18  1  0  0  0  0
 17 31  1  0  0  0  0
 17 35  1  0  0  0  0
 17 36  1  0  0  0  0
 18 32  1  0  0  0  0
 18 33  1  0  0  0  0
 18 34  1  0  0  0  0
M  END
> <PUBCHEM_COMPOUND_CID>
30735404

> <PUBCHEM_COMPOUND_CANONICALIZED>
1

> <PUBCHEM_CACTVS_COMPLEXITY>
321

> <PUBCHEM_CACTVS_HBOND_ACCEPTOR>
1

> <PUBCHEM_CACTVS_HBOND_DONOR>
2

> <PUBCHEM_CACTVS_ROTATABLE_BOND>
4

> <PUBCHEM_CACTVS_SUBSKEYS>
AAADceBzIAAAAAAAAAAAAAAAAAAAAWAAAAAwAAAAAAAAAFgB8AAAHgAQAAAADAjBngQ+wPLJkACoAzV3VACCgCAxAiAI2aA4ZNgIIOLAkZGEIAhglgDIyQcQgMAOgAAAAAACAAAAAAAAAAQAAAAAAAAAAA==

> <PUBCHEM_IUPAC_OPENEYE_NAME>
N-[2-(1H-indol-3-yl)ethyl]-3-methyl-but-2-enamide

> <PUBCHEM_IUPAC_CAS_NAME>
N-[2-(1H-indol-3-yl)ethyl]-3-methyl-2-butenamide

> <PUBCHEM_IUPAC_NAME>
N-[2-(1H-indol-3-yl)ethyl]-3-methylbut-2-enamide

> <PUBCHEM_IUPAC_SYSTEMATIC_NAME>
N-[2-(1H-indol-3-yl)ethyl]-3-methyl-but-2-enamide

> <PUBCHEM_IUPAC_TRADITIONAL_NAME>
N-[2-(1H-indol-3-yl)ethyl]-3-methyl-but-2-enamide

> <PUBCHEM_IUPAC_INCHI>
InChI=1S/C15H18N2O/c1-11(2)9-15(18)16-8-7-12-10-17-14-6-4-3-5-13(12)14/h3-6,9-10,17H,7-8H2,1-2H3,(H,16,18)

> <PUBCHEM_IUPAC_INCHIKEY>
WHINZRLOLUOGJO-UHFFFAOYSA-N

> <PUBCHEM_XLOGP3>
3.3

> <PUBCHEM_EXACT_MASS>
242.141913

> <PUBCHEM_MOLECULAR_FORMULA>
C15H18N2O

> <PUBCHEM_MOLECULAR_WEIGHT>
242.31622

> <PUBCHEM_OPENEYE_CAN_SMILES>
CC(=CC(=O)NCCC1=CNC2=CC=CC=C21)C

> <PUBCHEM_OPENEYE_ISO_SMILES>
CC(=CC(=O)NCCC1=CNC2=CC=CC=C21)C

> <PUBCHEM_CACTVS_TPSA>
44.9

> <PUBCHEM_MONOISOTOPIC_WEIGHT>
242.141913

> <PUBCHEM_TOTAL_CHARGE>
0

> <PUBCHEM_HEAVY_ATOM_COUNT>
18

> <PUBCHEM_ATOM_DEF_STEREO_COUNT>
0

> <PUBCHEM_ATOM_UDEF_STEREO_COUNT>
0

> <PUBCHEM_BOND_DEF_STEREO_COUNT>
0

> <PUBCHEM_BOND_UDEF_STEREO_COUNT>
0

> <PUBCHEM_ISOTOPIC_ATOM_COUNT>
0

> <PUBCHEM_COMPONENT_COUNT>
1

> <PUBCHEM_CACTVS_TAUTO_COUNT>
2

> <PUBCHEM_COORDINATE_TYPE>
1
5
255

> <PUBCHEM_BONDANNOTATIONS>
10  12  8
11  13  8
12  13  8
2  7  8
2  9  8
4  6  8
4  9  8
6  10  8
6  7  8
7  11  8

$$$$
30735531
  -OEChem-12041211412D

 29 29  0     0  0  0  0  0  0999 V2000
    2.0000   -0.7500    0.0000 Cl  0  0  0  0  0  0  0  0  0  0  0  0
    3.7320   -3.7500    0.0000 Cl  0  0  0  0  0  0  0  0  0  0  0  0
    3.7320    2.2500    0.0000 O   0  0  0  0  0  0  0  0  0  0  0  0
    4.5981    0.7500    0.0000 N   0  0  0  0  0  0  0  0  0  0  0  0
    3.7320    0.2500    0.0000 C   0  0  0  0  0  0  0  0  0  0  0  0
    3.7320   -0.7500    0.0000 C   0  0  0  0  0  0  0  0  0  0  0  0
    2.8660   -1.2500    0.0000 C   0  0  0  0  0  0  0  0  0  0  0  0
    4.5981   -1.2500    0.0000 C   0  0  0  0  0  0  0  0  0  0  0  0
    4.5981    1.7500    0.0000 C   0  0  0  0  0  0  0  0  0  0  0  0
    2.8660   -2.2500    0.0000 C   0  0  0  0  0  0  0  0  0  0  0  0
    4.5981   -2.2500    0.0000 C   0  0  0  0  0  0  0  0  0  0  0  0
    5.4641    3.2500    0.0000 C   0  0  0  0  0  0  0  0  0  0  0  0
    5.4641    2.2500    0.0000 C   0  0  0  0  0  0  0  0  0  0  0  0
    3.7320   -2.7500    0.0000 C   0  0  0  0  0  0  0  0  0  0  0  0
    6.3301    3.7500    0.0000 C   0  0  0  0  0  0  0  0  0  0  0  0
    4.5981    3.7500    0.0000 C   0  0  0  0  0  0  0  0  0  0  0  0
    3.5200    0.8326    0.0000 H   0  0  0  0  0  0  0  0  0  0  0  0
    3.1215    0.1423    0.0000 H   0  0  0  0  0  0  0  0  0  0  0  0
    5.1350    0.4400    0.0000 H   0  0  0  0  0  0  0  0  0  0  0  0
    5.1350   -0.9400    0.0000 H   0  0  0  0  0  0  0  0  0  0  0  0
    2.3291   -2.5600    0.0000 H   0  0  0  0  0  0  0  0  0  0  0  0
    5.1350   -2.5600    0.0000 H   0  0  0  0  0  0  0  0  0  0  0  0
    6.0010    1.9400    0.0000 H   0  0  0  0  0  0  0  0  0  0  0  0
    4.9081    4.2869    0.0000 H   0  0  0  0  0  0  0  0  0  0  0  0
    4.0611    4.0600    0.0000 H   0  0  0  0  0  0  0  0  0  0  0  0
    6.6401    3.2131    0.0000 H   0  0  0  0  0  0  0  0  0  0  0  0
    6.8671    4.0600    0.0000 H   0  0  0  0  0  0  0  0  0  0  0  0
    6.0201    4.2869    0.0000 H   0  0  0  0  0  0  0  0  0  0  0  0
    4.2881    3.2131    0.0000 H   0  0  0  0  0  0  0  0  0  0  0  0
  1  7  1  0  0  0  0
  2 14  1  0  0  0  0
  3  9  2  0  0  0  0
  4  5  1  0  0  0  0
  4  9  1  0  0  0  0
  4 19  1  0  0  0  0
  5  6  1  0  0  0  0
  5 17  1  0  0  0  0
  5 18  1  0  0  0  0
  6  7  2  0  0  0  0
  6  8  1  0  0  0  0
  7 10  1  0  0  0  0
  8 11  2  0  0  0  0
  8 20  1  0  0  0  0
  9 13  1  0  0  0  0
 10 14  2  0  0  0  0
 10 21  1  0  0  0  0
 11 14  1  0  0  0  0
 11 22  1  0  0  0  0
 12 13  2  0  0  0  0
 12 15  1  0  0  0  0
 12 16  1  0  0  0  0
 13 23  1  0  0  0  0
 15 26  1  0  0  0  0
 15 27  1  0  0  0  0
 15 28  1  0  0  0  0
 16 24  1  0  0  0  0
 16 25  1  0  0  0  0
 16 29  1  0  0  0  0
M  END
> <PUBCHEM_COMPOUND_CID>
30735531

> <PUBCHEM_COMPOUND_CANONICALIZED>
1

> <PUBCHEM_CACTVS_COMPLEXITY>
274

> <PUBCHEM_CACTVS_HBOND_ACCEPTOR>
1

> <PUBCHEM_CACTVS_HBOND_DONOR>
1

> <PUBCHEM_CACTVS_ROTATABLE_BOND>
3

> <PUBCHEM_CACTVS_SUBSKEYS>
AAADccByIAAGAAAAAAAAAAAAAAAAAAAAAAAwAAAAAAAAAAABAAAAHgIQAAAADALBmCQyAILAAACIAiFSEACCAAAgBQAIiIAIBsgIICKBkxGEIAhglgCIiQcQgAAOBAAAAACBAAAIAAAAAQIAAAAAAAAAAA==

> <PUBCHEM_IUPAC_OPENEYE_NAME>
N-[(2,4-dichlorophenyl)methyl]-3-methyl-but-2-enamide

> <PUBCHEM_IUPAC_CAS_NAME>
N-[(2,4-dichlorophenyl)methyl]-3-methyl-2-butenamide

> <PUBCHEM_IUPAC_NAME>
N-[(2,4-dichlorophenyl)methyl]-3-methylbut-2-enamide

> <PUBCHEM_IUPAC_SYSTEMATIC_NAME>
N-[(2,4-dichlorophenyl)methyl]-3-methyl-but-2-enamide

> <PUBCHEM_IUPAC_TRADITIONAL_NAME>
N-(2,4-dichlorobenzyl)-3-methyl-but-2-enamide

> <PUBCHEM_IUPAC_INCHI>
InChI=1S/C12H13Cl2NO/c1-8(2)5-12(16)15-7-9-3-4-10(13)6-11(9)14/h3-6H,7H2,1-2H3,(H,15,16)

> <PUBCHEM_IUPAC_INCHIKEY>
DRKKEPWSHYNLBL-UHFFFAOYSA-N

> <PUBCHEM_XLOGP3>
4

> <PUBCHEM_EXACT_MASS>
257.037419

> <PUBCHEM_MOLECULAR_FORMULA>
C12H13Cl2NO

> <PUBCHEM_MOLECULAR_WEIGHT>
258.14372

> <PUBCHEM_OPENEYE_CAN_SMILES>
CC(=CC(=O)NCC1=C(C=C(C=C1)Cl)Cl)C

> <PUBCHEM_OPENEYE_ISO_SMILES>
CC(=CC(=O)NCC1=C(C=C(C=C1)Cl)Cl)C

> <PUBCHEM_CACTVS_TPSA>
29.1

> <PUBCHEM_MONOISOTOPIC_WEIGHT>
257.037419

> <PUBCHEM_TOTAL_CHARGE>
0

> <PUBCHEM_HEAVY_ATOM_COUNT>
16

> <PUBCHEM_ATOM_DEF_STEREO_COUNT>
0

> <PUBCHEM_ATOM_UDEF_STEREO_COUNT>
0

> <PUBCHEM_BOND_DEF_STEREO_COUNT>
0

> <PUBCHEM_BOND_UDEF_STEREO_COUNT>
0

> <PUBCHEM_ISOTOPIC_ATOM_COUNT>
0

> <PUBCHEM_COMPONENT_COUNT>
1

> <PUBCHEM_CACTVS_TAUTO_COUNT>
2

> <PUBCHEM_COORDINATE_TYPE>
1
5
255

> <PUBCHEM_BONDANNOTATIONS>
10  14  8
11  14  8
6  7  8
6  8  8
7  10  8
8  11  8

$$$$
30735533
  -OEChem-12041211412D

 26 26  0     0  0  0  0  0  0999 V2000
    2.0000   -3.0000    0.0000 I   0  0  0  0  0  0  0  0  0  0  0  0
    5.4641    0.0000    0.0000 O   0  0  0  0  0  0  0  0  0  0  0  0
    3.7321    0.0000    0.0000 N   0  0  0  0  0  0  0  0  0  0  0  0
    3.7321   -1.0000    0.0000 C   0  0  0  0  0  0  0  0  0  0  0  0
    5.4641    2.0000    0.0000 C   0  0  0  0  0  0  0  0  0  0  0  0
    2.8660   -1.5000    0.0000 C   0  0  0  0  0  0  0  0  0  0  0  0
    4.5981   -1.5000    0.0000 C   0  0  0  0  0  0  0  0  0  0  0  0
    4.5981    1.5000    0.0000 C   0  0  0  0  0  0  0  0  0  0  0  0
    4.5981    0.5000    0.0000 C   0  0  0  0  0  0  0  0  0  0  0  0
    2.8660   -2.5000    0.0000 C   0  0  0  0  0  0  0  0  0  0  0  0
    4.5981   -2.5000    0.0000 C   0  0  0  0  0  0  0  0  0  0  0  0
    5.4641    3.0000    0.0000 C   0  0  0  0  0  0  0  0  0  0  0  0
    6.3301    1.5000    0.0000 C   0  0  0  0  0  0  0  0  0  0  0  0
    3.7321   -3.0000    0.0000 C   0  0  0  0  0  0  0  0  0  0  0  0
    3.1951    0.3100    0.0000 H   0  0  0  0  0  0  0  0  0  0  0  0
    2.3291   -1.1900    0.0000 H   0  0  0  0  0  0  0  0  0  0  0  0
    5.1350   -1.1900    0.0000 H   0  0  0  0  0  0  0  0  0  0  0  0
    4.0611    1.8100    0.0000 H   0  0  0  0  0  0  0  0  0  0  0  0
    5.1350   -2.8100    0.0000 H   0  0  0  0  0  0  0  0  0  0  0  0
    6.0841    3.0000    0.0000 H   0  0  0  0  0  0  0  0  0  0  0  0
    5.4641    3.6200    0.0000 H   0  0  0  0  0  0  0  0  0  0  0  0
    4.8441    3.0000    0.0000 H   0  0  0  0  0  0  0  0  0  0  0  0
    6.0201    0.9631    0.0000 H   0  0  0  0  0  0  0  0  0  0  0  0
    6.8671    1.1900    0.0000 H   0  0  0  0  0  0  0  0  0  0  0  0
    6.6401    2.0369    0.0000 H   0  0  0  0  0  0  0  0  0  0  0  0
    3.7321   -3.6200    0.0000 H   0  0  0  0  0  0  0  0  0  0  0  0
  1 10  1  0  0  0  0
  2  9  2  0  0  0  0
  3  4  1  0  0  0  0
  3  9  1  0  0  0  0
  3 15  1  0  0  0  0
  4  6  2  0  0  0  0
  4  7  1  0  0  0  0
  5  8  2  0  0  0  0
  5 12  1  0  0  0  0
  5 13  1  0  0  0  0
  6 10  1  0  0  0  0
  6 16  1  0  0  0  0
  7 11  2  0  0  0  0
  7 17  1  0  0  0  0
  8  9  1  0  0  0  0
  8 18  1  0  0  0  0
 10 14  2  0  0  0  0
 11 14  1  0  0  0  0
 11 19  1  0  0  0  0
 12 20  1  0  0  0  0
 12 21  1  0  0  0  0
 12 22  1  0  0  0  0
 13 23  1  0  0  0  0
 13 24  1  0  0  0  0
 13 25  1  0  0  0  0
 14 26  1  0  0  0  0
M  END
> <PUBCHEM_COMPOUND_CID>
30735533

> <PUBCHEM_COMPOUND_CANONICALIZED>
1

> <PUBCHEM_CACTVS_COMPLEXITY>
233

> <PUBCHEM_CACTVS_HBOND_ACCEPTOR>
1

> <PUBCHEM_CACTVS_HBOND_DONOR>
1

> <PUBCHEM_CACTVS_ROTATABLE_BOND>
2

> <PUBCHEM_CACTVS_SUBSKEYS>
AAADccByIAAAAgAAAAAAAAAAAAAAAAAAAAAwAAAAAAAAAAABAAAAHgAwAAAADAiDkAAywILAAACIAiVSUACCAAAhAgAIiAAAZMgIICLAkZGEIAhglADIyQcQAAAAAAAAAAAAAAAAAAAAAAAAAAAAAAAAAA==

> <PUBCHEM_IUPAC_OPENEYE_NAME>
N-(3-iodophenyl)-3-methyl-but-2-enamide

> <PUBCHEM_IUPAC_CAS_NAME>
N-(3-iodophenyl)-3-methyl-2-butenamide

> <PUBCHEM_IUPAC_NAME>
N-(3-iodophenyl)-3-methylbut-2-enamide

> <PUBCHEM_IUPAC_SYSTEMATIC_NAME>
N-(3-iodanylphenyl)-3-methyl-but-2-enamide

> <PUBCHEM_IUPAC_TRADITIONAL_NAME>
N-(3-iodophenyl)-3-methyl-but-2-enamide

> <PUBCHEM_IUPAC_INCHI>
InChI=1S/C11H12INO/c1-8(2)6-11(14)13-10-5-3-4-9(12)7-10/h3-7H,1-2H3,(H,13,14)

> <PUBCHEM_IUPAC_INCHIKEY>
RZCWPRMTAJBUIW-UHFFFAOYSA-N

> <PUBCHEM_XLOGP3>
4.1

> <PUBCHEM_EXACT_MASS>
300.996362

> <PUBCHEM_MOLECULAR_FORMULA>
C11H12INO

> <PUBCHEM_MOLECULAR_WEIGHT>
301.12355

> <PUBCHEM_OPENEYE_CAN_SMILES>
CC(=CC(=O)NC1=CC(=CC=C1)I)C

> <PUBCHEM_OPENEYE_ISO_SMILES>
CC(=CC(=O)NC1=CC(=CC=C1)I)C

> <PUBCHEM_CACTVS_TPSA>
29.1

> <PUBCHEM_MONOISOTOPIC_WEIGHT>
300.996362

> <PUBCHEM_TOTAL_CHARGE>
0

> <PUBCHEM_HEAVY_ATOM_COUNT>
14

> <PUBCHEM_ATOM_DEF_STEREO_COUNT>
0

> <PUBCHEM_ATOM_UDEF_STEREO_COUNT>
0

> <PUBCHEM_BOND_DEF_STEREO_COUNT>
0

> <PUBCHEM_BOND_UDEF_STEREO_COUNT>
0

> <PUBCHEM_ISOTOPIC_ATOM_COUNT>
0

> <PUBCHEM_COMPONENT_COUNT>
1

> <PUBCHEM_CACTVS_TAUTO_COUNT>
2

> <PUBCHEM_COORDINATE_TYPE>
1
5
255

> <PUBCHEM_BONDANNOTATIONS>
10  14  8
11  14  8
4  6  8
4  7  8
6  10  8
7  11  8

$$$$
30742040
  -OEChem-12041211422D

 29 29  0     0  0  0  0  0  0999 V2000
    3.7634    0.9531    0.0000 N   0  3  0  0  0  0  0  0  0  0  0  0
    2.9945   -1.5784    0.0000 N   0  0  0  0  0  0  0  0  0  0  0  0
    4.5724    1.5409    0.0000 C   0  0  0  0  0  0  0  0  0  0  0  0
    2.9543    1.5409    0.0000 C   0  0  0  0  0  0  0  0  0  0  0  0
    4.2634    2.4920    0.0000 C   0  0  0  0  0  0  0  0  0  0  0  0
    3.2634    2.4920    0.0000 C   0  0  0  0  0  0  0  0  0  0  0  0
    3.1756    0.1441    0.0000 C   0  0  0  0  0  0  0  0  0  0  0  0
    3.5823   -0.7694    0.0000 C   0  0  0  0  0  0  0  0  0  0  0  0
    3.4013   -2.4920    0.0000 C   0  0  0  0  0  0  0  0  0  0  0  0
    2.0000   -1.4739    0.0000 C   0  0  0  0  0  0  0  0  0  0  0  0
    4.1278    0.4516    0.0000 H   0  0  0  0  0  0  0  0  0  0  0  0
    2.3879    1.7931    0.0000 H   0  0  0  0  0  0  0  0  0  0  0  0
    2.6443    1.0040    0.0000 H   0  0  0  0  0  0  0  0  0  0  0  0
    4.8824    1.0040    0.0000 H   0  0  0  0  0  0  0  0  0  0  0  0
    5.1388    1.7931    0.0000 H   0  0  0  0  0  0  0  0  0  0  0  0
    3.3282    3.1086    0.0000 H   0  0  0  0  0  0  0  0  0  0  0  0
    2.6569    2.6209    0.0000 H   0  0  0  0  0  0  0  0  0  0  0  0
    4.8698    2.6209    0.0000 H   0  0  0  0  0  0  0  0  0  0  0  0
    4.1986    3.1086    0.0000 H   0  0  0  0  0  0  0  0  0  0  0  0
    2.7449    0.5901    0.0000 H   0  0  0  0  0  0  0  0  0  0  0  0
    2.6616   -0.2026    0.0000 H   0  0  0  0  0  0  0  0  0  0  0  0
    4.0130   -1.2154    0.0000 H   0  0  0  0  0  0  0  0  0  0  0  0
    4.0963   -0.4227    0.0000 H   0  0  0  0  0  0  0  0  0  0  0  0
    2.0648   -0.8573    0.0000 H   0  0  0  0  0  0  0  0  0  0  0  0
    1.3834   -1.4091    0.0000 H   0  0  0  0  0  0  0  0  0  0  0  0
    1.9352   -2.0905    0.0000 H   0  0  0  0  0  0  0  0  0  0  0  0
    2.8349   -2.7442    0.0000 H   0  0  0  0  0  0  0  0  0  0  0  0
    3.6534   -3.0584    0.0000 H   0  0  0  0  0  0  0  0  0  0  0  0
    3.9677   -2.2398    0.0000 H   0  0  0  0  0  0  0  0  0  0  0  0
  1  3  1  0  0  0  0
  1  4  1  0  0  0  0
  1  7  1  0  0  0  0
  1 11  1  0  0  0  0
  2  8  1  0  0  0  0
  2  9  1  0  0  0  0
  2 10  1  0  0  0  0
  3  5  1  0  0  0  0
  3 14  1  0  0  0  0
  3 15  1  0  0  0  0
  4  6  1  0  0  0  0
  4 12  1  0  0  0  0
  4 13  1  0  0  0  0
  5  6  1  0  0  0  0
  5 18  1  0  0  0  0
  5 19  1  0  0  0  0
  6 16  1  0  0  0  0
  6 17  1  0  0  0  0
  7  8  1  0  0  0  0
  7 20  1  0  0  0  0
  7 21  1  0  0  0  0
  8 22  1  0  0  0  0
  8 23  1  0  0  0  0
  9 27  1  0  0  0  0
  9 28  1  0  0  0  0
  9 29  1  0  0  0  0
 10 24  1  0  0  0  0
 10 25  1  0  0  0  0
 10 26  1  0  0  0  0
M  CHG  1   1   1
M  END
> <PUBCHEM_COMPOUND_CID>
30742040

> <PUBCHEM_COMPOUND_CANONICALIZED>
1

> <PUBCHEM_CACTVS_COMPLEXITY>
85.3

> <PUBCHEM_CACTVS_HBOND_ACCEPTOR>
1

> <PUBCHEM_CACTVS_HBOND_DONOR>
1

> <PUBCHEM_CACTVS_ROTATABLE_BOND>
3

> <PUBCHEM_CACTVS_SUBSKEYS>
AAADceBzAAAAAAAAAAAAAAAAAAAAAWAAAAAAAAAAAAAAAAAAAAAAHAAQAAAACADBAAQCAAPAAAAAAAAAAAAAAAAAAAAAAIAIAAAAQAAAgAAUAAAAEACAAAAAAAAAAAAAAAAAAAAAAAAAAAAAAAAAAAAAAA==

> <PUBCHEM_IUPAC_OPENEYE_NAME>
N,N-dimethyl-2-pyrrolidin-1-ium-1-yl-ethanamine

> <PUBCHEM_IUPAC_CAS_NAME>
N,N-dimethyl-2-(1-pyrrolidin-1-iumyl)ethanamine

> <PUBCHEM_IUPAC_NAME>
N,N-dimethyl-2-pyrrolidin-1-ium-1-ylethanamine

> <PUBCHEM_IUPAC_SYSTEMATIC_NAME>
N,N-dimethyl-2-pyrrolidin-1-ium-1-yl-ethanamine

> <PUBCHEM_IUPAC_TRADITIONAL_NAME>
dimethyl(2-pyrrolidin-1-ium-1-ylethyl)amine

> <PUBCHEM_IUPAC_INCHI>
InChI=1S/C8H18N2/c1-9(2)7-8-10-5-3-4-6-10/h3-8H2,1-2H3/p+1

> <PUBCHEM_IUPAC_INCHIKEY>
QIWOPTPFRIJINT-UHFFFAOYSA-O

> <PUBCHEM_XLOGP3>
1.1

> <PUBCHEM_EXACT_MASS>
143.154824

> <PUBCHEM_MOLECULAR_FORMULA>
C8H19N2+

> <PUBCHEM_MOLECULAR_WEIGHT>
143.24986

> <PUBCHEM_OPENEYE_CAN_SMILES>
CN(C)CC[NH+]1CCCC1

> <PUBCHEM_OPENEYE_ISO_SMILES>
CN(C)CC[NH+]1CCCC1

> <PUBCHEM_CACTVS_TPSA>
7.7

> <PUBCHEM_MONOISOTOPIC_WEIGHT>
143.154824

> <PUBCHEM_TOTAL_CHARGE>
1

> <PUBCHEM_HEAVY_ATOM_COUNT>
10

> <PUBCHEM_ATOM_DEF_STEREO_COUNT>
0

> <PUBCHEM_ATOM_UDEF_STEREO_COUNT>
0

> <PUBCHEM_BOND_DEF_STEREO_COUNT>
0

> <PUBCHEM_BOND_UDEF_STEREO_COUNT>
0

> <PUBCHEM_ISOTOPIC_ATOM_COUNT>
0

> <PUBCHEM_COMPONENT_COUNT>
1

> <PUBCHEM_CACTVS_TAUTO_COUNT>
1

> <PUBCHEM_COORDINATE_TYPE>
1
5
255

$$$$
