65679799
  -OEChem-11301218262D

 34 36  0     1  0  0  0  0  0999 V2000
    4.5981    0.4470    0.0000 O   0  0  0  0  0  0  0  0  0  0  0  0
    2.8660    0.4470    0.0000 N   0  0  0  0  0  0  0  0  0  0  0  0
    5.5443   -2.8577    0.0000 N   0  0  0  0  0  0  0  0  0  0  0  0
    2.8660    1.4470    0.0000 C   0  0  3  0  0  0  0  0  0  0  0  0
    3.7320    1.9470    0.0000 C   0  0  0  0  0  0  0  0  0  0  0  0
    2.0000    1.9470    0.0000 C   0  0  0  0  0  0  0  0  0  0  0  0
    3.7320    2.9470    0.0000 C   0  0  0  0  0  0  0  0  0  0  0  0
    2.0000    2.9470    0.0000 C   0  0  0  0  0  0  0  0  0  0  0  0
    2.8660    3.4470    0.0000 C   0  0  0  0  0  0  0  0  0  0  0  0
    3.7320   -0.0530    0.0000 C   0  0  0  0  0  0  0  0  0  0  0  0
    3.7320   -1.0530    0.0000 C   0  0  0  0  0  0  0  0  0  0  0  0
    4.5981   -1.5530    0.0000 C   0  0  0  0  0  0  0  0  0  0  0  0
    4.5981   -2.5530    0.0000 C   0  0  0  0  0  0  0  0  0  0  0  0
    2.8660   -1.5530    0.0000 C   0  0  0  0  0  0  0  0  0  0  0  0
    5.5443   -1.2482    0.0000 C   0  0  0  0  0  0  0  0  0  0  0  0
    3.7320   -3.0530    0.0000 C   0  0  0  0  0  0  0  0  0  0  0  0
    2.8660   -2.5530    0.0000 C   0  0  0  0  0  0  0  0  0  0  0  0
    6.1279   -2.0530    0.0000 C   0  0  0  0  0  0  0  0  0  0  0  0
    3.4030    1.1370    0.0000 H   0  0  0  0  0  0  0  0  0  0  0  0
    3.9441    1.3644    0.0000 H   0  0  0  0  0  0  0  0  0  0  0  0
    4.3426    2.0547    0.0000 H   0  0  0  0  0  0  0  0  0  0  0  0
    1.3894    2.0547    0.0000 H   0  0  0  0  0  0  0  0  0  0  0  0
    1.7880    1.3644    0.0000 H   0  0  0  0  0  0  0  0  0  0  0  0
    4.3426    2.8394    0.0000 H   0  0  0  0  0  0  0  0  0  0  0  0
    3.9441    3.5296    0.0000 H   0  0  0  0  0  0  0  0  0  0  0  0
    2.3291    0.1370    0.0000 H   0  0  0  0  0  0  0  0  0  0  0  0
    1.4631    3.2570    0.0000 H   0  0  0  0  0  0  0  0  0  0  0  0
    2.8660    4.0670    0.0000 H   0  0  0  0  0  0  0  0  0  0  0  0
    2.3291   -1.2430    0.0000 H   0  0  0  0  0  0  0  0  0  0  0  0
    5.7369   -0.6589    0.0000 H   0  0  0  0  0  0  0  0  0  0  0  0
    3.7320   -3.6730    0.0000 H   0  0  0  0  0  0  0  0  0  0  0  0
    5.7369   -3.4470    0.0000 H   0  0  0  0  0  0  0  0  0  0  0  0
    2.3291   -2.8630    0.0000 H   0  0  0  0  0  0  0  0  0  0  0  0
    6.7479   -2.0530    0.0000 H   0  0  0  0  0  0  0  0  0  0  0  0
  1 10  2  0  0  0  0
  2  4  1  0  0  0  0
  2 10  1  0  0  0  0
  2 26  1  0  0  0  0
  3 13  1  0  0  0  0
  3 18  1  0  0  0  0
  3 32  1  0  0  0  0
  4  5  1  0  0  0  0
  4  6  1  0  0  0  0
  4 19  1  0  0  0  0
  5  7  1  0  0  0  0
  5 20  1  0  0  0  0
  5 21  1  0  0  0  0
  6  8  1  0  0  0  0
  6 22  1  0  0  0  0
  6 23  1  0  0  0  0
  7  9  1  0  0  0  0
  7 24  1  0  0  0  0
  7 25  1  0  0  0  0
  8  9  2  0  0  0  0
  8 27  1  0  0  0  0
  9 28  1  0  0  0  0
 10 11  1  0  0  0  0
 11 12  2  0  0  0  0
 11 14  1  0  0  0  0
 12 13  1  0  0  0  0
 12 15  1  0  0  0  0
 13 16  2  0  0  0  0
 14 17  2  0  0  0  0
 14 29  1  0  0  0  0
 15 18  2  0  0  0  0
 15 30  1  0  0  0  0
 16 17  1  0  0  0  0
 16 31  1  0  0  0  0
 17 33  1  0  0  0  0
 18 34  1  0  0  0  0
M  END
> <PUBCHEM_COMPOUND_CID>
65679799

> <PUBCHEM_COMPOUND_CANONICALIZED>
1

> <PUBCHEM_CACTVS_COMPLEXITY>
339

> <PUBCHEM_CACTVS_HBOND_ACCEPTOR>
1

> <PUBCHEM_CACTVS_HBOND_DONOR>
2

> <PUBCHEM_CACTVS_ROTATABLE_BOND>
2

> <PUBCHEM_CACTVS_SUBSKEYS>
AAADceBzIAAAAAAAAAAAAAAAAAAAAWAAAAAwQAAAAAAAAFgB8AAAHgAQAAAADCjBngQ8wPLJkACoAzV3VACCgCA1AiAI2aE4ZNgIIPLAlZGEIQhglgDIyYcciYCOgAAAQAASAAAAAACAACQAAAAAAAAAAA==

> <PUBCHEM_IUPAC_OPENEYE_NAME>
N-cyclohex-3-en-1-yl-1H-indole-4-carboxamide

> <PUBCHEM_IUPAC_CAS_NAME>
N-(1-cyclohex-3-enyl)-1H-indole-4-carboxamide

> <PUBCHEM_IUPAC_NAME>
N-cyclohex-3-en-1-yl-1H-indole-4-carboxamide

> <PUBCHEM_IUPAC_SYSTEMATIC_NAME>
N-cyclohex-3-en-1-yl-1H-indole-4-carboxamide

> <PUBCHEM_IUPAC_TRADITIONAL_NAME>
N-cyclohex-3-en-1-yl-1H-indole-4-carboxamide

> <PUBCHEM_IUPAC_INCHI>
InChI=1S/C15H16N2O/c18-15(17-11-5-2-1-3-6-11)13-7-4-8-14-12(13)9-10-16-14/h1-2,4,7-11,16H,3,5-6H2,(H,17,18)

> <PUBCHEM_IUPAC_INCHIKEY>
REELPBVLTFUTDZ-UHFFFAOYSA-N

> <PUBCHEM_XLOGP3>
2.6

> <PUBCHEM_EXACT_MASS>
240.126263

> <PUBCHEM_MOLECULAR_FORMULA>
C15H16N2O

> <PUBCHEM_MOLECULAR_WEIGHT>
240.30034

> <PUBCHEM_OPENEYE_CAN_SMILES>
C1CC(CC=C1)NC(=O)C2=C3C=CNC3=CC=C2

> <PUBCHEM_OPENEYE_ISO_SMILES>
C1CC(CC=C1)NC(=O)C2=C3C=CNC3=CC=C2

> <PUBCHEM_CACTVS_TPSA>
44.9

> <PUBCHEM_MONOISOTOPIC_WEIGHT>
240.126263

> <PUBCHEM_TOTAL_CHARGE>
0

> <PUBCHEM_HEAVY_ATOM_COUNT>
18

> <PUBCHEM_ATOM_DEF_STEREO_COUNT>
0

> <PUBCHEM_ATOM_UDEF_STEREO_COUNT>
1

> <PUBCHEM_BOND_DEF_STEREO_COUNT>
0

> <PUBCHEM_BOND_UDEF_STEREO_COUNT>
0

> <PUBCHEM_ISOTOPIC_ATOM_COUNT>
0

> <PUBCHEM_COMPONENT_COUNT>
1

> <PUBCHEM_CACTVS_TAUTO_COUNT>
5

> <PUBCHEM_COORDINATE_TYPE>
1
5
255

> <PUBCHEM_BONDANNOTATIONS>
11  12  8
11  14  8
12  13  8
12  15  8
13  16  8
14  17  8
15  18  8
16  17  8
4  2  3
3  13  8
3  18  8

$$$$
