62129402
  -OEChem-11301218212D

 28 29  0     0  0  0  0  0  0999 V2000
    4.1756    3.4239    0.0000 Br  0  0  0  0  0  0  0  0  0  0  0  0
    2.2218   -3.4239    0.0000 Cl  0  0  0  0  0  0  0  0  0  0  0  0
    3.0878    1.0761    0.0000 N   0  0  0  0  0  0  0  0  0  0  0  0
    2.2788    1.6639    0.0000 N   0  0  0  0  0  0  0  0  0  0  0  0
    3.8968    1.6639    0.0000 C   0  0  0  0  0  0  0  0  0  0  0  0
    3.0878    0.0761    0.0000 C   0  0  0  0  0  0  0  0  0  0  0  0
    3.5878    2.6149    0.0000 C   0  0  0  0  0  0  0  0  0  0  0  0
    2.5878    2.6149    0.0000 C   0  0  0  0  0  0  0  0  0  0  0  0
    2.2218   -0.4239    0.0000 C   0  0  0  0  0  0  0  0  0  0  0  0
    3.9538   -0.4239    0.0000 C   0  0  0  0  0  0  0  0  0  0  0  0
    4.8479    1.3548    0.0000 C   0  0  0  0  0  0  0  0  0  0  0  0
    3.0878   -1.9239    0.0000 C   0  0  0  0  0  0  0  0  0  0  0  0
    2.2218   -1.4239    0.0000 C   0  0  0  0  0  0  0  0  0  0  0  0
    3.9538   -1.4239    0.0000 C   0  0  0  0  0  0  0  0  0  0  0  0
    2.0000    3.4239    0.0000 C   0  0  0  0  0  0  0  0  0  0  0  0
    3.0878   -2.9239    0.0000 C   0  0  0  0  0  0  0  0  0  0  0  0
    1.6848   -0.1139    0.0000 H   0  0  0  0  0  0  0  0  0  0  0  0
    4.4908   -0.1139    0.0000 H   0  0  0  0  0  0  0  0  0  0  0  0
    4.6563    0.7652    0.0000 H   0  0  0  0  0  0  0  0  0  0  0  0
    5.4375    1.1632    0.0000 H   0  0  0  0  0  0  0  0  0  0  0  0
    5.0395    1.9445    0.0000 H   0  0  0  0  0  0  0  0  0  0  0  0
    1.6848   -1.7339    0.0000 H   0  0  0  0  0  0  0  0  0  0  0  0
    4.4908   -1.7339    0.0000 H   0  0  0  0  0  0  0  0  0  0  0  0
    2.5016    3.7884    0.0000 H   0  0  0  0  0  0  0  0  0  0  0  0
    1.6356    3.9255    0.0000 H   0  0  0  0  0  0  0  0  0  0  0  0
    1.4984    3.0595    0.0000 H   0  0  0  0  0  0  0  0  0  0  0  0
    3.2998   -3.5065    0.0000 H   0  0  0  0  0  0  0  0  0  0  0  0
    3.6984   -2.8163    0.0000 H   0  0  0  0  0  0  0  0  0  0  0  0
  1  7  1  0  0  0  0
  2 16  1  0  0  0  0
  3  4  1  0  0  0  0
  3  5  1  0  0  0  0
  3  6  1  0  0  0  0
  4  8  2  0  0  0  0
  5  7  2  0  0  0  0
  5 11  1  0  0  0  0
  6  9  2  0  0  0  0
  6 10  1  0  0  0  0
  7  8  1  0  0  0  0
  8 15  1  0  0  0  0
  9 13  1  0  0  0  0
  9 17  1  0  0  0  0
 10 14  2  0  0  0  0
 10 18  1  0  0  0  0
 11 19  1  0  0  0  0
 11 20  1  0  0  0  0
 11 21  1  0  0  0  0
 12 13  2  0  0  0  0
 12 14  1  0  0  0  0
 12 16  1  0  0  0  0
 13 22  1  0  0  0  0
 14 23  1  0  0  0  0
 15 24  1  0  0  0  0
 15 25  1  0  0  0  0
 15 26  1  0  0  0  0
 16 27  1  0  0  0  0
 16 28  1  0  0  0  0
M  END
> <PUBCHEM_COMPOUND_CID>
62129402

> <PUBCHEM_COMPOUND_CANONICALIZED>
1

> <PUBCHEM_CACTVS_COMPLEXITY>
231

> <PUBCHEM_CACTVS_HBOND_ACCEPTOR>
1

> <PUBCHEM_CACTVS_HBOND_DONOR>
0

> <PUBCHEM_CACTVS_ROTATABLE_BOND>
2

> <PUBCHEM_CACTVS_SUBSKEYS>
AAADccBzAAAEEAAAAAAAAAAAAAAAAWAAAAAwAAAAAAAAAAABwAAAHAJIAAABrAuBHkAywJIIAACiAyRiRACSBCAhAgQYmCAwZrgIIGLB0dGEpAhgiADIyAcQgAAOCAAAAAAAAAAQAAAAAAAAAAAAAAAAAA==

> <PUBCHEM_IUPAC_OPENEYE_NAME>
4-bromo-1-[4-(chloromethyl)phenyl]-3,5-dimethyl-pyrazole

> <PUBCHEM_IUPAC_CAS_NAME>
4-bromo-1-[4-(chloromethyl)phenyl]-3,5-dimethylpyrazole

> <PUBCHEM_IUPAC_NAME>
4-bromo-1-[4-(chloromethyl)phenyl]-3,5-dimethylpyrazole

> <PUBCHEM_IUPAC_SYSTEMATIC_NAME>
4-bromanyl-1-[4-(chloromethyl)phenyl]-3,5-dimethyl-pyrazole

> <PUBCHEM_IUPAC_TRADITIONAL_NAME>
4-bromo-1-[4-(chloromethyl)phenyl]-3,5-dimethyl-pyrazole

> <PUBCHEM_IUPAC_INCHI>
InChI=1S/C12H12BrClN2/c1-8-12(13)9(2)16(15-8)11-5-3-10(7-14)4-6-11/h3-6H,7H2,1-2H3

> <PUBCHEM_IUPAC_INCHIKEY>
MNTXMHKAKBSISE-UHFFFAOYSA-N

> <PUBCHEM_XLOGP3>
4

> <PUBCHEM_EXACT_MASS>
297.987238

> <PUBCHEM_MOLECULAR_FORMULA>
C12H12BrClN2

> <PUBCHEM_MOLECULAR_WEIGHT>
299.59408

> <PUBCHEM_OPENEYE_CAN_SMILES>
CC1=C(C(=NN1C2=CC=C(C=C2)CCl)C)Br

> <PUBCHEM_OPENEYE_ISO_SMILES>
CC1=C(C(=NN1C2=CC=C(C=C2)CCl)C)Br

> <PUBCHEM_CACTVS_TPSA>
17.8

> <PUBCHEM_MONOISOTOPIC_WEIGHT>
297.987238

> <PUBCHEM_TOTAL_CHARGE>
0

> <PUBCHEM_HEAVY_ATOM_COUNT>
16

> <PUBCHEM_ATOM_DEF_STEREO_COUNT>
0

> <PUBCHEM_ATOM_UDEF_STEREO_COUNT>
0

> <PUBCHEM_BOND_DEF_STEREO_COUNT>
0

> <PUBCHEM_BOND_UDEF_STEREO_COUNT>
0

> <PUBCHEM_ISOTOPIC_ATOM_COUNT>
0

> <PUBCHEM_COMPONENT_COUNT>
1

> <PUBCHEM_CACTVS_TAUTO_COUNT>
1

> <PUBCHEM_COORDINATE_TYPE>
1
5
255

> <PUBCHEM_BONDANNOTATIONS>
10  14  8
12  13  8
12  14  8
3  4  8
3  5  8
4  8  8
5  7  8
6  10  8
6  9  8
7  8  8
9  13  8

$$$$
62130708
  -OEChem-11301218212D

 28 29  0     0  0  0  0  0  0999 V2000
    4.1756    3.4239    0.0000 Cl  0  0  0  0  0  0  0  0  0  0  0  0
    2.2218   -3.4239    0.0000 Cl  0  0  0  0  0  0  0  0  0  0  0  0
    3.0878    1.0761    0.0000 N   0  0  0  0  0  0  0  0  0  0  0  0
    2.2788    1.6639    0.0000 N   0  0  0  0  0  0  0  0  0  0  0  0
    3.8968    1.6639    0.0000 C   0  0  0  0  0  0  0  0  0  0  0  0
    3.0878    0.0761    0.0000 C   0  0  0  0  0  0  0  0  0  0  0  0
    3.5878    2.6149    0.0000 C   0  0  0  0  0  0  0  0  0  0  0  0
    2.5878    2.6149    0.0000 C   0  0  0  0  0  0  0  0  0  0  0  0
    2.2218   -0.4239    0.0000 C   0  0  0  0  0  0  0  0  0  0  0  0
    3.9538   -0.4239    0.0000 C   0  0  0  0  0  0  0  0  0  0  0  0
    4.8479    1.3548    0.0000 C   0  0  0  0  0  0  0  0  0  0  0  0
    3.0878   -1.9239    0.0000 C   0  0  0  0  0  0  0  0  0  0  0  0
    2.2218   -1.4239    0.0000 C   0  0  0  0  0  0  0  0  0  0  0  0
    3.9538   -1.4239    0.0000 C   0  0  0  0  0  0  0  0  0  0  0  0
    2.0000    3.4239    0.0000 C   0  0  0  0  0  0  0  0  0  0  0  0
    3.0878   -2.9239    0.0000 C   0  0  0  0  0  0  0  0  0  0  0  0
    1.6848   -0.1139    0.0000 H   0  0  0  0  0  0  0  0  0  0  0  0
    4.4908   -0.1139    0.0000 H   0  0  0  0  0  0  0  0  0  0  0  0
    4.6563    0.7652    0.0000 H   0  0  0  0  0  0  0  0  0  0  0  0
    5.4375    1.1632    0.0000 H   0  0  0  0  0  0  0  0  0  0  0  0
    5.0395    1.9445    0.0000 H   0  0  0  0  0  0  0  0  0  0  0  0
    1.6848   -1.7339    0.0000 H   0  0  0  0  0  0  0  0  0  0  0  0
    4.4908   -1.7339    0.0000 H   0  0  0  0  0  0  0  0  0  0  0  0
    2.5016    3.7884    0.0000 H   0  0  0  0  0  0  0  0  0  0  0  0
    1.6356    3.9255    0.0000 H   0  0  0  0  0  0  0  0  0  0  0  0
    1.4984    3.0595    0.0000 H   0  0  0  0  0  0  0  0  0  0  0  0
    3.2998   -3.5065    0.0000 H   0  0  0  0  0  0  0  0  0  0  0  0
    3.6984   -2.8163    0.0000 H   0  0  0  0  0  0  0  0  0  0  0  0
  1  7  1  0  0  0  0
  2 16  1  0  0  0  0
  3  4  1  0  0  0  0
  3  5  1  0  0  0  0
  3  6  1  0  0  0  0
  4  8  2  0  0  0  0
  5  7  2  0  0  0  0
  5 11  1  0  0  0  0
  6  9  2  0  0  0  0
  6 10  1  0  0  0  0
  7  8  1  0  0  0  0
  8 15  1  0  0  0  0
  9 13  1  0  0  0  0
  9 17  1  0  0  0  0
 10 14  2  0  0  0  0
 10 18  1  0  0  0  0
 11 19  1  0  0  0  0
 11 20  1  0  0  0  0
 11 21  1  0  0  0  0
 12 13  2  0  0  0  0
 12 14  1  0  0  0  0
 12 16  1  0  0  0  0
 13 22  1  0  0  0  0
 14 23  1  0  0  0  0
 15 24  1  0  0  0  0
 15 25  1  0  0  0  0
 15 26  1  0  0  0  0
 16 27  1  0  0  0  0
 16 28  1  0  0  0  0
M  END
> <PUBCHEM_COMPOUND_CID>
62130708

> <PUBCHEM_COMPOUND_CANONICALIZED>
1

> <PUBCHEM_CACTVS_COMPLEXITY>
229

> <PUBCHEM_CACTVS_HBOND_ACCEPTOR>
1

> <PUBCHEM_CACTVS_HBOND_DONOR>
0

> <PUBCHEM_CACTVS_ROTATABLE_BOND>
2

> <PUBCHEM_CACTVS_SUBSKEYS>
AAADccBzAAAGAAAAAAAAAAAAAAAAAWAAAAAwAAAAAAAAAAABwAAAHAIIAAAADAuBHmAywJIIAACiAyRiRACSBCAhBgAYmCAwZpgIIGLB0dHEpAhgiADIyAcQgAAOCAAAAAAAAAAQAAAAAAAAAAAAAAAAAA==

> <PUBCHEM_IUPAC_OPENEYE_NAME>
4-chloro-1-[4-(chloromethyl)phenyl]-3,5-dimethyl-pyrazole

> <PUBCHEM_IUPAC_CAS_NAME>
4-chloro-1-[4-(chloromethyl)phenyl]-3,5-dimethylpyrazole

> <PUBCHEM_IUPAC_NAME>
4-chloro-1-[4-(chloromethyl)phenyl]-3,5-dimethylpyrazole

> <PUBCHEM_IUPAC_SYSTEMATIC_NAME>
4-chloranyl-1-[4-(chloromethyl)phenyl]-3,5-dimethyl-pyrazole

> <PUBCHEM_IUPAC_TRADITIONAL_NAME>
4-chloro-1-[4-(chloromethyl)phenyl]-3,5-dimethyl-pyrazole

> <PUBCHEM_IUPAC_INCHI>
InChI=1S/C12H12Cl2N2/c1-8-12(14)9(2)16(15-8)11-5-3-10(7-13)4-6-11/h3-6H,7H2,1-2H3

> <PUBCHEM_IUPAC_INCHIKEY>
AJTUDTATTUCSGF-UHFFFAOYSA-N

> <PUBCHEM_XLOGP3>
3.9

> <PUBCHEM_EXACT_MASS>
254.037754

> <PUBCHEM_MOLECULAR_FORMULA>
C12H12Cl2N2

> <PUBCHEM_MOLECULAR_WEIGHT>
255.14308

> <PUBCHEM_OPENEYE_CAN_SMILES>
CC1=C(C(=NN1C2=CC=C(C=C2)CCl)C)Cl

> <PUBCHEM_OPENEYE_ISO_SMILES>
CC1=C(C(=NN1C2=CC=C(C=C2)CCl)C)Cl

> <PUBCHEM_CACTVS_TPSA>
17.8

> <PUBCHEM_MONOISOTOPIC_WEIGHT>
254.037754

> <PUBCHEM_TOTAL_CHARGE>
0

> <PUBCHEM_HEAVY_ATOM_COUNT>
16

> <PUBCHEM_ATOM_DEF_STEREO_COUNT>
0

> <PUBCHEM_ATOM_UDEF_STEREO_COUNT>
0

> <PUBCHEM_BOND_DEF_STEREO_COUNT>
0

> <PUBCHEM_BOND_UDEF_STEREO_COUNT>
0

> <PUBCHEM_ISOTOPIC_ATOM_COUNT>
0

> <PUBCHEM_COMPONENT_COUNT>
1

> <PUBCHEM_CACTVS_TAUTO_COUNT>
1

> <PUBCHEM_COORDINATE_TYPE>
1
5
255

> <PUBCHEM_BONDANNOTATIONS>
10  14  8
12  13  8
12  14  8
3  4  8
3  5  8
4  8  8
5  7  8
6  10  8
6  9  8
7  8  8
9  13  8

$$$$
62139729
  -OEChem-11301218222D

 32 34  0     0  0  0  0  0  0999 V2000
    8.0321    0.2492    0.0000 N   0  0  0  0  0  0  0  0  0  0  0  0
    4.5274    1.1618    0.0000 C   0  0  0  0  0  0  0  0  0  0  0  0
    5.3364    0.5740    0.0000 C   0  0  0  0  0  0  0  0  0  0  0  0
    5.0274   -0.3771    0.0000 C   0  0  0  0  0  0  0  0  0  0  0  0
    3.7183    0.5740    0.0000 C   0  0  0  0  0  0  0  0  0  0  0  0
    4.0274   -0.3771    0.0000 C   0  0  0  0  0  0  0  0  0  0  0  0
    6.3518    0.8063    0.0000 C   0  0  0  0  0  0  0  0  0  0  0  0
    5.7123   -1.1618    0.0000 C   0  0  0  0  0  0  0  0  0  0  0  0
    7.0547    0.0376    0.0000 C   0  0  0  0  0  0  0  0  0  0  0  0
    2.7029    0.8063    0.0000 C   0  0  0  0  0  0  0  0  0  0  0  0
    3.3424   -1.1618    0.0000 C   0  0  0  0  0  0  0  0  0  0  0  0
    6.7328   -0.9531    0.0000 C   0  0  0  0  0  0  0  0  0  0  0  0
    2.0000    0.0376    0.0000 C   0  0  0  0  0  0  0  0  0  0  0  0
    2.3219   -0.9531    0.0000 C   0  0  0  0  0  0  0  0  0  0  0  0
    8.7040   -0.4913    0.0000 C   0  0  0  0  0  0  0  0  0  0  0  0
    9.6814   -0.2796    0.0000 C   0  0  0  0  0  0  0  0  0  0  0  0
   10.3534   -1.0202    0.0000 C   0  0  0  0  0  0  0  0  0  0  0  0
    4.9422    1.6225    0.0000 H   0  0  0  0  0  0  0  0  0  0  0  0
    4.1125    1.6225    0.0000 H   0  0  0  0  0  0  0  0  0  0  0  0
    6.5365    1.3981    0.0000 H   0  0  0  0  0  0  0  0  0  0  0  0
    5.5139   -1.7492    0.0000 H   0  0  0  0  0  0  0  0  0  0  0  0
    2.5182    1.3981    0.0000 H   0  0  0  0  0  0  0  0  0  0  0  0
    3.5408   -1.7492    0.0000 H   0  0  0  0  0  0  0  0  0  0  0  0
    7.1459   -1.4154    0.0000 H   0  0  0  0  0  0  0  0  0  0  0  0
    1.3940    0.1688    0.0000 H   0  0  0  0  0  0  0  0  0  0  0  0
    1.9088   -1.4154    0.0000 H   0  0  0  0  0  0  0  0  0  0  0  0
    8.2214    0.8396    0.0000 H   0  0  0  0  0  0  0  0  0  0  0  0
    8.1795   -0.8219    0.0000 H   0  0  0  0  0  0  0  0  0  0  0  0
    8.9385   -1.0653    0.0000 H   0  0  0  0  0  0  0  0  0  0  0  0
    9.8707    0.3108    0.0000 H   0  0  0  0  0  0  0  0  0  0  0  0
   10.1641   -1.6106    0.0000 H   0  0  0  0  0  0  0  0  0  0  0  0
   10.9593   -0.8890    0.0000 H   0  0  0  0  0  0  0  0  0  0  0  0
  1  9  1  0  0  0  0
  1 15  1  0  0  0  0
  1 27  1  0  0  0  0
  2  3  1  0  0  0  0
  2  5  1  0  0  0  0
  2 18  1  0  0  0  0
  2 19  1  0  0  0  0
  3  4  2  0  0  0  0
  3  7  1  0  0  0  0
  4  6  1  0  0  0  0
  4  8  1  0  0  0  0
  5  6  1  0  0  0  0
  5 10  2  0  0  0  0
  6 11  2  0  0  0  0
  7  9  2  0  0  0  0
  7 20  1  0  0  0  0
  8 12  2  0  0  0  0
  8 21  1  0  0  0  0
  9 12  1  0  0  0  0
 10 13  1  0  0  0  0
 10 22  1  0  0  0  0
 11 14  1  0  0  0  0
 11 23  1  0  0  0  0
 12 24  1  0  0  0  0
 13 14  2  0  0  0  0
 13 25  1  0  0  0  0
 14 26  1  0  0  0  0
 15 16  1  0  0  0  0
 15 28  1  0  0  0  0
 15 29  1  0  0  0  0
 16 17  2  0  0  0  0
 16 30  1  0  0  0  0
 17 31  1  0  0  0  0
 17 32  1  0  0  0  0
M  END
> <PUBCHEM_COMPOUND_CID>
62139729

> <PUBCHEM_COMPOUND_CANONICALIZED>
1

> <PUBCHEM_CACTVS_COMPLEXITY>
273

> <PUBCHEM_CACTVS_HBOND_ACCEPTOR>
1

> <PUBCHEM_CACTVS_HBOND_DONOR>
1

> <PUBCHEM_CACTVS_ROTATABLE_BOND>
3

> <PUBCHEM_CACTVS_SUBSKEYS>
AAADccB6AAAAAAAAAAAAAAAAAAAAAYAAAAAwYAAAAAAAAGABQAAAHAAQAAAADAjBGAQwwILAAACAAiRCQACCAAAhAgAIiIAIZIgIICLAkZGEIAhgkADIyAcQgMAOiAAAQAAQAAAQAACAACAAAQAACAAAAA==

> <PUBCHEM_IUPAC_OPENEYE_NAME>
N-allyl-9H-fluoren-2-amine

> <PUBCHEM_IUPAC_CAS_NAME>
N-prop-2-enyl-9H-fluoren-2-amine

> <PUBCHEM_IUPAC_NAME>
N-prop-2-enyl-9H-fluoren-2-amine

> <PUBCHEM_IUPAC_SYSTEMATIC_NAME>
N-prop-2-enyl-9H-fluoren-2-amine

> <PUBCHEM_IUPAC_TRADITIONAL_NAME>
allyl(9H-fluoren-2-yl)amine

> <PUBCHEM_IUPAC_INCHI>
InChI=1S/C16H15N/c1-2-9-17-14-7-8-16-13(11-14)10-12-5-3-4-6-15(12)16/h2-8,11,17H,1,9-10H2

> <PUBCHEM_IUPAC_INCHIKEY>
JEVVDNHUZMKFMJ-UHFFFAOYSA-N

> <PUBCHEM_XLOGP3>
4.4

> <PUBCHEM_EXACT_MASS>
221.120449

> <PUBCHEM_MOLECULAR_FORMULA>
C16H15N

> <PUBCHEM_MOLECULAR_WEIGHT>
221.297

> <PUBCHEM_OPENEYE_CAN_SMILES>
C=CCNC1=CC2=C(C=C1)C3=CC=CC=C3C2

> <PUBCHEM_OPENEYE_ISO_SMILES>
C=CCNC1=CC2=C(C=C1)C3=CC=CC=C3C2

> <PUBCHEM_CACTVS_TPSA>
12

> <PUBCHEM_MONOISOTOPIC_WEIGHT>
221.120449

> <PUBCHEM_TOTAL_CHARGE>
0

> <PUBCHEM_HEAVY_ATOM_COUNT>
17

> <PUBCHEM_ATOM_DEF_STEREO_COUNT>
0

> <PUBCHEM_ATOM_UDEF_STEREO_COUNT>
0

> <PUBCHEM_BOND_DEF_STEREO_COUNT>
0

> <PUBCHEM_BOND_UDEF_STEREO_COUNT>
0

> <PUBCHEM_ISOTOPIC_ATOM_COUNT>
0

> <PUBCHEM_COMPONENT_COUNT>
1

> <PUBCHEM_CACTVS_TAUTO_COUNT>
1

> <PUBCHEM_COORDINATE_TYPE>
1
5
255

> <PUBCHEM_BONDANNOTATIONS>
10  13  8
11  14  8
13  14  8
3  4  8
3  7  8
4  8  8
5  10  8
5  6  8
6  11  8
7  9  8
8  12  8
9  12  8

$$$$
62140872
  -OEChem-11301218222D

 21 21  0     0  0  0  0  0  0999 V2000
    2.0000   -2.0000    0.0000 Cl  0  0  0  0  0  0  0  0  0  0  0  0
    3.7320   -3.0000    0.0000 Cl  0  0  0  0  0  0  0  0  0  0  0  0
    3.7320    1.0000    0.0000 N   0  0  0  0  0  0  0  0  0  0  0  0
    3.7320    0.0000    0.0000 C   0  0  0  0  0  0  0  0  0  0  0  0
    4.5981    1.5000    0.0000 C   0  0  0  0  0  0  0  0  0  0  0  0
    2.8660   -0.5000    0.0000 C   0  0  0  0  0  0  0  0  0  0  0  0
    4.5981   -0.5000    0.0000 C   0  0  0  0  0  0  0  0  0  0  0  0
    2.8660   -1.5000    0.0000 C   0  0  0  0  0  0  0  0  0  0  0  0
    4.5981   -1.5000    0.0000 C   0  0  0  0  0  0  0  0  0  0  0  0
    3.7320   -2.0000    0.0000 C   0  0  0  0  0  0  0  0  0  0  0  0
    4.5981    2.5000    0.0000 C   0  0  0  0  0  0  0  0  0  0  0  0
    5.4641    3.0000    0.0000 C   0  0  0  0  0  0  0  0  0  0  0  0
    3.1951    1.3100    0.0000 H   0  0  0  0  0  0  0  0  0  0  0  0
    4.8101    0.9174    0.0000 H   0  0  0  0  0  0  0  0  0  0  0  0
    5.2087    1.6077    0.0000 H   0  0  0  0  0  0  0  0  0  0  0  0
    2.3291   -0.1900    0.0000 H   0  0  0  0  0  0  0  0  0  0  0  0
    5.1350   -0.1900    0.0000 H   0  0  0  0  0  0  0  0  0  0  0  0
    5.1350   -1.8100    0.0000 H   0  0  0  0  0  0  0  0  0  0  0  0
    4.0611    2.8100    0.0000 H   0  0  0  0  0  0  0  0  0  0  0  0
    6.0010    2.6900    0.0000 H   0  0  0  0  0  0  0  0  0  0  0  0
    5.4641    3.6200    0.0000 H   0  0  0  0  0  0  0  0  0  0  0  0
  1  8  1  0  0  0  0
  2 10  1  0  0  0  0
  3  4  1  0  0  0  0
  3  5  1  0  0  0  0
  3 13  1  0  0  0  0
  4  6  2  0  0  0  0
  4  7  1  0  0  0  0
  5 11  1  0  0  0  0
  5 14  1  0  0  0  0
  5 15  1  0  0  0  0
  6  8  1  0  0  0  0
  6 16  1  0  0  0  0
  7  9  2  0  0  0  0
  7 17  1  0  0  0  0
  8 10  2  0  0  0  0
  9 10  1  0  0  0  0
  9 18  1  0  0  0  0
 11 12  2  0  0  0  0
 11 19  1  0  0  0  0
 12 20  1  0  0  0  0
 12 21  1  0  0  0  0
M  END
> <PUBCHEM_COMPOUND_CID>
62140872

> <PUBCHEM_COMPOUND_CANONICALIZED>
1

> <PUBCHEM_CACTVS_COMPLEXITY>
150

> <PUBCHEM_CACTVS_HBOND_ACCEPTOR>
1

> <PUBCHEM_CACTVS_HBOND_DONOR>
1

> <PUBCHEM_CACTVS_ROTATABLE_BOND>
3

> <PUBCHEM_CACTVS_SUBSKEYS>
AAADccByAAAGAAAAAAAAAAAAAAAAAAAAAAAwAAAAAAAAAAABAAAAHAIQAAAACArBECQwwILAAACAACRCQACCAAAhBwAIisAIZogIICLBk5GEIAhgkADIyAcQAAAAAABAAAIAAAQAAIAABAAACAAAAAAAAA==

> <PUBCHEM_IUPAC_OPENEYE_NAME>
N-allyl-3,4-dichloro-aniline

> <PUBCHEM_IUPAC_CAS_NAME>
3,4-dichloro-N-prop-2-enylaniline

> <PUBCHEM_IUPAC_NAME>
3,4-dichloro-N-prop-2-enylaniline

> <PUBCHEM_IUPAC_SYSTEMATIC_NAME>
3,4-bis(chloranyl)-N-prop-2-enyl-aniline

> <PUBCHEM_IUPAC_TRADITIONAL_NAME>
allyl-(3,4-dichlorophenyl)amine

> <PUBCHEM_IUPAC_INCHI>
InChI=1S/C9H9Cl2N/c1-2-5-12-7-3-4-8(10)9(11)6-7/h2-4,6,12H,1,5H2

> <PUBCHEM_IUPAC_INCHIKEY>
NAZYJWZDNSMILY-UHFFFAOYSA-N

> <PUBCHEM_XLOGP3>
4

> <PUBCHEM_EXACT_MASS>
201.011205

> <PUBCHEM_MOLECULAR_FORMULA>
C9H9Cl2N

> <PUBCHEM_MOLECULAR_WEIGHT>
202.08046

> <PUBCHEM_OPENEYE_CAN_SMILES>
C=CCNC1=CC(=C(C=C1)Cl)Cl

> <PUBCHEM_OPENEYE_ISO_SMILES>
C=CCNC1=CC(=C(C=C1)Cl)Cl

> <PUBCHEM_CACTVS_TPSA>
12

> <PUBCHEM_MONOISOTOPIC_WEIGHT>
201.011205

> <PUBCHEM_TOTAL_CHARGE>
0

> <PUBCHEM_HEAVY_ATOM_COUNT>
12

> <PUBCHEM_ATOM_DEF_STEREO_COUNT>
0

> <PUBCHEM_ATOM_UDEF_STEREO_COUNT>
0

> <PUBCHEM_BOND_DEF_STEREO_COUNT>
0

> <PUBCHEM_BOND_UDEF_STEREO_COUNT>
0

> <PUBCHEM_ISOTOPIC_ATOM_COUNT>
0

> <PUBCHEM_COMPONENT_COUNT>
1

> <PUBCHEM_CACTVS_TAUTO_COUNT>
1

> <PUBCHEM_COORDINATE_TYPE>
1
5
255

> <PUBCHEM_BONDANNOTATIONS>
4  6  8
4  7  8
6  8  8
7  9  8
8  10  8
9  10  8

$$$$
62140875
  -OEChem-11301218222D

 31 31  0     0  0  0  0  0  0999 V2000
    3.7320    1.4400    0.0000 N   0  0  0  0  0  0  0  0  0  0  0  0
    3.7320   -2.5600    0.0000 C   0  0  0  0  0  0  0  0  0  0  0  0
    2.8660   -3.0600    0.0000 C   0  0  0  0  0  0  0  0  0  0  0  0
    3.7320   -1.5600    0.0000 C   0  0  0  0  0  0  0  0  0  0  0  0
    2.8660   -4.0600    0.0000 C   0  0  0  0  0  0  0  0  0  0  0  0
    4.5981   -1.0600    0.0000 C   0  0  0  0  0  0  0  0  0  0  0  0
    2.8660   -1.0600    0.0000 C   0  0  0  0  0  0  0  0  0  0  0  0
    2.0000   -4.5600    0.0000 C   0  0  0  0  0  0  0  0  0  0  0  0
    3.7320    0.4400    0.0000 C   0  0  0  0  0  0  0  0  0  0  0  0
    4.5981   -0.0600    0.0000 C   0  0  0  0  0  0  0  0  0  0  0  0
    2.8660   -0.0600    0.0000 C   0  0  0  0  0  0  0  0  0  0  0  0
    4.5981    1.9400    0.0000 C   0  0  0  0  0  0  0  0  0  0  0  0
    4.5981    2.9400    0.0000 C   0  0  0  0  0  0  0  0  0  0  0  0
    4.5981    3.9400    0.0000 C   0  0  0  0  0  0  0  0  0  0  0  0
    3.9441   -3.1426    0.0000 H   0  0  0  0  0  0  0  0  0  0  0  0
    4.3426   -2.4523    0.0000 H   0  0  0  0  0  0  0  0  0  0  0  0
    2.6540   -2.4774    0.0000 H   0  0  0  0  0  0  0  0  0  0  0  0
    2.2554   -3.1677    0.0000 H   0  0  0  0  0  0  0  0  0  0  0  0
    3.0781   -4.6426    0.0000 H   0  0  0  0  0  0  0  0  0  0  0  0
    3.4766   -3.9523    0.0000 H   0  0  0  0  0  0  0  0  0  0  0  0
    5.1350   -1.3700    0.0000 H   0  0  0  0  0  0  0  0  0  0  0  0
    2.3291   -1.3700    0.0000 H   0  0  0  0  0  0  0  0  0  0  0  0
    1.6900   -4.0231    0.0000 H   0  0  0  0  0  0  0  0  0  0  0  0
    1.4631   -4.8700    0.0000 H   0  0  0  0  0  0  0  0  0  0  0  0
    2.3100   -5.0969    0.0000 H   0  0  0  0  0  0  0  0  0  0  0  0
    5.1350    0.2500    0.0000 H   0  0  0  0  0  0  0  0  0  0  0  0
    2.3291    0.2500    0.0000 H   0  0  0  0  0  0  0  0  0  0  0  0
    3.1951    1.7500    0.0000 H   0  0  0  0  0  0  0  0  0  0  0  0
    4.8101    1.3574    0.0000 H   0  0  0  0  0  0  0  0  0  0  0  0
    5.2087    2.0477    0.0000 H   0  0  0  0  0  0  0  0  0  0  0  0
    4.5981    4.5600    0.0000 H   0  0  0  0  0  0  0  0  0  0  0  0
  1  9  1  0  0  0  0
  1 12  1  0  0  0  0
  1 28  1  0  0  0  0
  2  3  1  0  0  0  0
  2  4  1  0  0  0  0
  2 15  1  0  0  0  0
  2 16  1  0  0  0  0
  3  5  1  0  0  0  0
  3 17  1  0  0  0  0
  3 18  1  0  0  0  0
  4  6  2  0  0  0  0
  4  7  1  0  0  0  0
  5  8  1  0  0  0  0
  5 19  1  0  0  0  0
  5 20  1  0  0  0  0
  6 10  1  0  0  0  0
  6 21  1  0  0  0  0
  7 11  2  0  0  0  0
  7 22  1  0  0  0  0
  8 23  1  0  0  0  0
  8 24  1  0  0  0  0
  8 25  1  0  0  0  0
  9 10  2  0  0  0  0
  9 11  1  0  0  0  0
 10 26  1  0  0  0  0
 11 27  1  0  0  0  0
 12 13  1  0  0  0  0
 12 29  1  0  0  0  0
 12 30  1  0  0  0  0
 13 14  3  0  0  0  0
 14 31  1  0  0  0  0
M  END
> <PUBCHEM_COMPOUND_CID>
62140875

> <PUBCHEM_COMPOUND_CANONICALIZED>
1

> <PUBCHEM_CACTVS_COMPLEXITY>
181

> <PUBCHEM_CACTVS_HBOND_ACCEPTOR>
1

> <PUBCHEM_CACTVS_HBOND_DONOR>
1

> <PUBCHEM_CACTVS_ROTATABLE_BOND>
5

> <PUBCHEM_CACTVS_SUBSKEYS>
AAADceByAAAAAAAAAAAAAAAAAAAAAAAAAAAwAAAAAAAAAAABAAAAHAAQAAAADAjBGAQywILAAADAGiRCQACCAAAhAgAIiIAIZIgIICLAkZGEIAhgkADIyAcQgIAOCAAAAAAAAAAQAAAAAAAAAAAAAAAAAA==

> <PUBCHEM_IUPAC_OPENEYE_NAME>
4-butyl-N-prop-2-ynyl-aniline

> <PUBCHEM_IUPAC_CAS_NAME>
4-butyl-N-prop-2-ynylaniline

> <PUBCHEM_IUPAC_NAME>
4-butyl-N-prop-2-ynylaniline

> <PUBCHEM_IUPAC_SYSTEMATIC_NAME>
4-butyl-N-prop-2-ynyl-aniline

> <PUBCHEM_IUPAC_TRADITIONAL_NAME>
(4-butylphenyl)-propargyl-amine

> <PUBCHEM_IUPAC_INCHI>
InChI=1S/C13H17N/c1-3-5-6-12-7-9-13(10-8-12)14-11-4-2/h2,7-10,14H,3,5-6,11H2,1H3

> <PUBCHEM_IUPAC_INCHIKEY>
QEJCFHBCWTUASU-UHFFFAOYSA-N

> <PUBCHEM_XLOGP3>
3.8

> <PUBCHEM_EXACT_MASS>
187.1361

> <PUBCHEM_MOLECULAR_FORMULA>
C13H17N

> <PUBCHEM_MOLECULAR_WEIGHT>
187.28078

> <PUBCHEM_OPENEYE_CAN_SMILES>
CCCCC1=CC=C(C=C1)NCC#C

> <PUBCHEM_OPENEYE_ISO_SMILES>
CCCCC1=CC=C(C=C1)NCC#C

> <PUBCHEM_CACTVS_TPSA>
12

> <PUBCHEM_MONOISOTOPIC_WEIGHT>
187.1361

> <PUBCHEM_TOTAL_CHARGE>
0

> <PUBCHEM_HEAVY_ATOM_COUNT>
14

> <PUBCHEM_ATOM_DEF_STEREO_COUNT>
0

> <PUBCHEM_ATOM_UDEF_STEREO_COUNT>
0

> <PUBCHEM_BOND_DEF_STEREO_COUNT>
0

> <PUBCHEM_BOND_UDEF_STEREO_COUNT>
0

> <PUBCHEM_ISOTOPIC_ATOM_COUNT>
0

> <PUBCHEM_COMPONENT_COUNT>
1

> <PUBCHEM_CACTVS_TAUTO_COUNT>
1

> <PUBCHEM_COORDINATE_TYPE>
1
5
255

> <PUBCHEM_BONDANNOTATIONS>
4  6  8
4  7  8
6  10  8
7  11  8
9  10  8
9  11  8

$$$$
62140876
  -OEChem-11301218222D

 33 33  0     0  0  0  0  0  0999 V2000
    3.7320    2.0000    0.0000 N   0  0  0  0  0  0  0  0  0  0  0  0
    3.7320   -2.0000    0.0000 C   0  0  0  0  0  0  0  0  0  0  0  0
    2.8660   -2.5000    0.0000 C   0  0  0  0  0  0  0  0  0  0  0  0
    3.7320   -1.0000    0.0000 C   0  0  0  0  0  0  0  0  0  0  0  0
    2.8660   -3.5000    0.0000 C   0  0  0  0  0  0  0  0  0  0  0  0
    4.5981   -0.5000    0.0000 C   0  0  0  0  0  0  0  0  0  0  0  0
    2.8660   -0.5000    0.0000 C   0  0  0  0  0  0  0  0  0  0  0  0
    3.7320    1.0000    0.0000 C   0  0  0  0  0  0  0  0  0  0  0  0
    2.0000   -4.0000    0.0000 C   0  0  0  0  0  0  0  0  0  0  0  0
    4.5981    0.5000    0.0000 C   0  0  0  0  0  0  0  0  0  0  0  0
    2.8660    0.5000    0.0000 C   0  0  0  0  0  0  0  0  0  0  0  0
    4.5981    2.5000    0.0000 C   0  0  0  0  0  0  0  0  0  0  0  0
    4.5981    3.5000    0.0000 C   0  0  0  0  0  0  0  0  0  0  0  0
    5.4641    4.0000    0.0000 C   0  0  0  0  0  0  0  0  0  0  0  0
    3.9441   -2.5826    0.0000 H   0  0  0  0  0  0  0  0  0  0  0  0
    4.3426   -1.8923    0.0000 H   0  0  0  0  0  0  0  0  0  0  0  0
    2.6540   -1.9174    0.0000 H   0  0  0  0  0  0  0  0  0  0  0  0
    2.2554   -2.6077    0.0000 H   0  0  0  0  0  0  0  0  0  0  0  0
    3.0781   -4.0826    0.0000 H   0  0  0  0  0  0  0  0  0  0  0  0
    3.4766   -3.3923    0.0000 H   0  0  0  0  0  0  0  0  0  0  0  0
    5.1350   -0.8100    0.0000 H   0  0  0  0  0  0  0  0  0  0  0  0
    2.3291   -0.8100    0.0000 H   0  0  0  0  0  0  0  0  0  0  0  0
    1.6900   -3.4631    0.0000 H   0  0  0  0  0  0  0  0  0  0  0  0
    1.4631   -4.3100    0.0000 H   0  0  0  0  0  0  0  0  0  0  0  0
    2.3100   -4.5369    0.0000 H   0  0  0  0  0  0  0  0  0  0  0  0
    5.1350    0.8100    0.0000 H   0  0  0  0  0  0  0  0  0  0  0  0
    2.3291    0.8100    0.0000 H   0  0  0  0  0  0  0  0  0  0  0  0
    3.1951    2.3100    0.0000 H   0  0  0  0  0  0  0  0  0  0  0  0
    4.8101    1.9174    0.0000 H   0  0  0  0  0  0  0  0  0  0  0  0
    5.2087    2.6077    0.0000 H   0  0  0  0  0  0  0  0  0  0  0  0
    4.0611    3.8100    0.0000 H   0  0  0  0  0  0  0  0  0  0  0  0
    6.0010    3.6900    0.0000 H   0  0  0  0  0  0  0  0  0  0  0  0
    5.4641    4.6200    0.0000 H   0  0  0  0  0  0  0  0  0  0  0  0
  1  8  1  0  0  0  0
  1 12  1  0  0  0  0
  1 28  1  0  0  0  0
  2  3  1  0  0  0  0
  2  4  1  0  0  0  0
  2 15  1  0  0  0  0
  2 16  1  0  0  0  0
  3  5  1  0  0  0  0
  3 17  1  0  0  0  0
  3 18  1  0  0  0  0
  4  6  2  0  0  0  0
  4  7  1  0  0  0  0
  5  9  1  0  0  0  0
  5 19  1  0  0  0  0
  5 20  1  0  0  0  0
  6 10  1  0  0  0  0
  6 21  1  0  0  0  0
  7 11  2  0  0  0  0
  7 22  1  0  0  0  0
  8 10  2  0  0  0  0
  8 11  1  0  0  0  0
  9 23  1  0  0  0  0
  9 24  1  0  0  0  0
  9 25  1  0  0  0  0
 10 26  1  0  0  0  0
 11 27  1  0  0  0  0
 12 13  1  0  0  0  0
 12 29  1  0  0  0  0
 12 30  1  0  0  0  0
 13 14  2  0  0  0  0
 13 31  1  0  0  0  0
 14 32  1  0  0  0  0
 14 33  1  0  0  0  0
M  END
> <PUBCHEM_COMPOUND_CID>
62140876

> <PUBCHEM_COMPOUND_CANONICALIZED>
1

> <PUBCHEM_CACTVS_COMPLEXITY>
145

> <PUBCHEM_CACTVS_HBOND_ACCEPTOR>
1

> <PUBCHEM_CACTVS_HBOND_DONOR>
1

> <PUBCHEM_CACTVS_ROTATABLE_BOND>
6

> <PUBCHEM_CACTVS_SUBSKEYS>
AAADceByAAAAAAAAAAAAAAAAAAAAAAAAAAAwAAAAAAAAAAABAAAAHAAQAAAADAjBGAQywILAAACAAiRCQACCAAAhAgAIiIAIZIgIICLAkZGEIAhgkADIyAcQgIAOCAAAAAAAAAAQAAAAAAAAAAAAAAAAAA==

> <PUBCHEM_IUPAC_OPENEYE_NAME>
N-allyl-4-butyl-aniline

> <PUBCHEM_IUPAC_CAS_NAME>
4-butyl-N-prop-2-enylaniline

> <PUBCHEM_IUPAC_NAME>
4-butyl-N-prop-2-enylaniline

> <PUBCHEM_IUPAC_SYSTEMATIC_NAME>
4-butyl-N-prop-2-enyl-aniline

> <PUBCHEM_IUPAC_TRADITIONAL_NAME>
allyl-(4-butylphenyl)amine

> <PUBCHEM_IUPAC_INCHI>
InChI=1S/C13H19N/c1-3-5-6-12-7-9-13(10-8-12)14-11-4-2/h4,7-10,14H,2-3,5-6,11H2,1H3

> <PUBCHEM_IUPAC_INCHIKEY>
KWGVKMRDDYKHKT-UHFFFAOYSA-N

> <PUBCHEM_XLOGP3>
4.4

> <PUBCHEM_EXACT_MASS>
189.15175

> <PUBCHEM_MOLECULAR_FORMULA>
C13H19N

> <PUBCHEM_MOLECULAR_WEIGHT>
189.29666

> <PUBCHEM_OPENEYE_CAN_SMILES>
CCCCC1=CC=C(C=C1)NCC=C

> <PUBCHEM_OPENEYE_ISO_SMILES>
CCCCC1=CC=C(C=C1)NCC=C

> <PUBCHEM_CACTVS_TPSA>
12

> <PUBCHEM_MONOISOTOPIC_WEIGHT>
189.15175

> <PUBCHEM_TOTAL_CHARGE>
0

> <PUBCHEM_HEAVY_ATOM_COUNT>
14

> <PUBCHEM_ATOM_DEF_STEREO_COUNT>
0

> <PUBCHEM_ATOM_UDEF_STEREO_COUNT>
0

> <PUBCHEM_BOND_DEF_STEREO_COUNT>
0

> <PUBCHEM_BOND_UDEF_STEREO_COUNT>
0

> <PUBCHEM_ISOTOPIC_ATOM_COUNT>
0

> <PUBCHEM_COMPONENT_COUNT>
1

> <PUBCHEM_CACTVS_TAUTO_COUNT>
1

> <PUBCHEM_COORDINATE_TYPE>
1
5
255

> <PUBCHEM_BONDANNOTATIONS>
4  6  8
4  7  8
6  10  8
7  11  8
8  10  8
8  11  8

$$$$
62141063
  -OEChem-11301218222D

 24 24  0     0  0  0  0  0  0999 V2000
    2.0000   -2.0000    0.0000 Cl  0  0  0  0  0  0  0  0  0  0  0  0
    3.7320    1.0000    0.0000 N   0  0  0  0  0  0  0  0  0  0  0  0
    3.7320    0.0000    0.0000 C   0  0  0  0  0  0  0  0  0  0  0  0
    3.7320   -2.0000    0.0000 C   0  0  0  0  0  0  0  0  0  0  0  0
    2.8660   -0.5000    0.0000 C   0  0  0  0  0  0  0  0  0  0  0  0
    4.5981   -0.5000    0.0000 C   0  0  0  0  0  0  0  0  0  0  0  0
    2.8660   -1.5000    0.0000 C   0  0  0  0  0  0  0  0  0  0  0  0
    4.5981   -1.5000    0.0000 C   0  0  0  0  0  0  0  0  0  0  0  0
    4.5981    1.5000    0.0000 C   0  0  0  0  0  0  0  0  0  0  0  0
    3.7320   -3.0000    0.0000 C   0  0  0  0  0  0  0  0  0  0  0  0
    4.5981    2.5000    0.0000 C   0  0  0  0  0  0  0  0  0  0  0  0
    5.4641    3.0000    0.0000 C   0  0  0  0  0  0  0  0  0  0  0  0
    2.3291   -0.1900    0.0000 H   0  0  0  0  0  0  0  0  0  0  0  0
    5.1350   -0.1900    0.0000 H   0  0  0  0  0  0  0  0  0  0  0  0
    3.1951    1.3100    0.0000 H   0  0  0  0  0  0  0  0  0  0  0  0
    5.1350   -1.8100    0.0000 H   0  0  0  0  0  0  0  0  0  0  0  0
    4.8101    0.9174    0.0000 H   0  0  0  0  0  0  0  0  0  0  0  0
    5.2087    1.6077    0.0000 H   0  0  0  0  0  0  0  0  0  0  0  0
    3.1120   -3.0000    0.0000 H   0  0  0  0  0  0  0  0  0  0  0  0
    3.7320   -3.6200    0.0000 H   0  0  0  0  0  0  0  0  0  0  0  0
    4.3520   -3.0000    0.0000 H   0  0  0  0  0  0  0  0  0  0  0  0
    4.0611    2.8100    0.0000 H   0  0  0  0  0  0  0  0  0  0  0  0
    6.0010    2.6900    0.0000 H   0  0  0  0  0  0  0  0  0  0  0  0
    5.4641    3.6200    0.0000 H   0  0  0  0  0  0  0  0  0  0  0  0
  1  7  1  0  0  0  0
  2  3  1  0  0  0  0
  2  9  1  0  0  0  0
  2 15  1  0  0  0  0
  3  5  2  0  0  0  0
  3  6  1  0  0  0  0
  4  7  2  0  0  0  0
  4  8  1  0  0  0  0
  4 10  1  0  0  0  0
  5  7  1  0  0  0  0
  5 13  1  0  0  0  0
  6  8  2  0  0  0  0
  6 14  1  0  0  0  0
  8 16  1  0  0  0  0
  9 11  1  0  0  0  0
  9 17  1  0  0  0  0
  9 18  1  0  0  0  0
 10 19  1  0  0  0  0
 10 20  1  0  0  0  0
 10 21  1  0  0  0  0
 11 12  2  0  0  0  0
 11 22  1  0  0  0  0
 12 23  1  0  0  0  0
 12 24  1  0  0  0  0
M  END
> <PUBCHEM_COMPOUND_CID>
62141063

> <PUBCHEM_COMPOUND_CANONICALIZED>
1

> <PUBCHEM_CACTVS_COMPLEXITY>
147

> <PUBCHEM_CACTVS_HBOND_ACCEPTOR>
1

> <PUBCHEM_CACTVS_HBOND_DONOR>
1

> <PUBCHEM_CACTVS_ROTATABLE_BOND>
3

> <PUBCHEM_CACTVS_SUBSKEYS>
AAADccByAAAEAAAAAAAAAAAAAAAAAAAAAAAwAAAAAAAAAAABAAAAHAIQAAAADArBGCQywILAAACAAiRCQACCAAAhBwAIiIAIZogIICLBk5GEIAhgkADIyAcQgAAOCAAAAAIBAAAQAAAABAIAAAAAAAAAAA==

> <PUBCHEM_IUPAC_OPENEYE_NAME>
N-allyl-3-chloro-4-methyl-aniline

> <PUBCHEM_IUPAC_CAS_NAME>
3-chloro-4-methyl-N-prop-2-enylaniline

> <PUBCHEM_IUPAC_NAME>
3-chloro-4-methyl-N-prop-2-enylaniline

> <PUBCHEM_IUPAC_SYSTEMATIC_NAME>
3-chloranyl-4-methyl-N-prop-2-enyl-aniline

> <PUBCHEM_IUPAC_TRADITIONAL_NAME>
allyl-(3-chloro-4-methyl-phenyl)amine

> <PUBCHEM_IUPAC_INCHI>
InChI=1S/C10H12ClN/c1-3-6-12-9-5-4-8(2)10(11)7-9/h3-5,7,12H,1,6H2,2H3

> <PUBCHEM_IUPAC_INCHIKEY>
PAEJFCFMVACVBK-UHFFFAOYSA-N

> <PUBCHEM_XLOGP3>
4.2

> <PUBCHEM_EXACT_MASS>
181.065827

> <PUBCHEM_MOLECULAR_FORMULA>
C10H12ClN

> <PUBCHEM_MOLECULAR_WEIGHT>
181.66198

> <PUBCHEM_OPENEYE_CAN_SMILES>
CC1=C(C=C(C=C1)NCC=C)Cl

> <PUBCHEM_OPENEYE_ISO_SMILES>
CC1=C(C=C(C=C1)NCC=C)Cl

> <PUBCHEM_CACTVS_TPSA>
12

> <PUBCHEM_MONOISOTOPIC_WEIGHT>
181.065827

> <PUBCHEM_TOTAL_CHARGE>
0

> <PUBCHEM_HEAVY_ATOM_COUNT>
12

> <PUBCHEM_ATOM_DEF_STEREO_COUNT>
0

> <PUBCHEM_ATOM_UDEF_STEREO_COUNT>
0

> <PUBCHEM_BOND_DEF_STEREO_COUNT>
0

> <PUBCHEM_BOND_UDEF_STEREO_COUNT>
0

> <PUBCHEM_ISOTOPIC_ATOM_COUNT>
0

> <PUBCHEM_COMPONENT_COUNT>
1

> <PUBCHEM_CACTVS_TAUTO_COUNT>
1

> <PUBCHEM_COORDINATE_TYPE>
1
5
255

> <PUBCHEM_BONDANNOTATIONS>
3  5  8
3  6  8
4  7  8
4  8  8
5  7  8
6  8  8

$$$$
62141254
  -OEChem-11301218222D

 27 27  0     0  0  0  0  0  0999 V2000
    3.7320    1.0000    0.0000 N   0  0  0  0  0  0  0  0  0  0  0  0
    2.8660   -1.5000    0.0000 C   0  0  0  0  0  0  0  0  0  0  0  0
    3.7320   -2.0000    0.0000 C   0  0  0  0  0  0  0  0  0  0  0  0
    3.7320    0.0000    0.0000 C   0  0  0  0  0  0  0  0  0  0  0  0
    2.8660   -0.5000    0.0000 C   0  0  0  0  0  0  0  0  0  0  0  0
    4.5981   -1.5000    0.0000 C   0  0  0  0  0  0  0  0  0  0  0  0
    4.5981   -0.5000    0.0000 C   0  0  0  0  0  0  0  0  0  0  0  0
    2.0000   -2.0000    0.0000 C   0  0  0  0  0  0  0  0  0  0  0  0
    3.7320   -3.0000    0.0000 C   0  0  0  0  0  0  0  0  0  0  0  0
    4.5981    1.5000    0.0000 C   0  0  0  0  0  0  0  0  0  0  0  0
    4.5981    2.5000    0.0000 C   0  0  0  0  0  0  0  0  0  0  0  0
    5.4641    3.0000    0.0000 C   0  0  0  0  0  0  0  0  0  0  0  0
    2.3291   -0.1900    0.0000 H   0  0  0  0  0  0  0  0  0  0  0  0
    5.1350   -1.8100    0.0000 H   0  0  0  0  0  0  0  0  0  0  0  0
    5.1350   -0.1900    0.0000 H   0  0  0  0  0  0  0  0  0  0  0  0
    3.1951    1.3100    0.0000 H   0  0  0  0  0  0  0  0  0  0  0  0
    1.6900   -1.4631    0.0000 H   0  0  0  0  0  0  0  0  0  0  0  0
    1.4631   -2.3100    0.0000 H   0  0  0  0  0  0  0  0  0  0  0  0
    2.3100   -2.5369    0.0000 H   0  0  0  0  0  0  0  0  0  0  0  0
    3.1120   -3.0000    0.0000 H   0  0  0  0  0  0  0  0  0  0  0  0
    3.7320   -3.6200    0.0000 H   0  0  0  0  0  0  0  0  0  0  0  0
    4.3520   -3.0000    0.0000 H   0  0  0  0  0  0  0  0  0  0  0  0
    4.8101    0.9174    0.0000 H   0  0  0  0  0  0  0  0  0  0  0  0
    5.2087    1.6077    0.0000 H   0  0  0  0  0  0  0  0  0  0  0  0
    4.0611    2.8100    0.0000 H   0  0  0  0  0  0  0  0  0  0  0  0
    6.0010    2.6900    0.0000 H   0  0  0  0  0  0  0  0  0  0  0  0
    5.4641    3.6200    0.0000 H   0  0  0  0  0  0  0  0  0  0  0  0
  1  4  1  0  0  0  0
  1 10  1  0  0  0  0
  1 16  1  0  0  0  0
  2  3  2  0  0  0  0
  2  5  1  0  0  0  0
  2  8  1  0  0  0  0
  3  6  1  0  0  0  0
  3  9  1  0  0  0  0
  4  5  2  0  0  0  0
  4  7  1  0  0  0  0
  5 13  1  0  0  0  0
  6  7  2  0  0  0  0
  6 14  1  0  0  0  0
  7 15  1  0  0  0  0
  8 17  1  0  0  0  0
  8 18  1  0  0  0  0
  8 19  1  0  0  0  0
  9 20  1  0  0  0  0
  9 21  1  0  0  0  0
  9 22  1  0  0  0  0
 10 11  1  0  0  0  0
 10 23  1  0  0  0  0
 10 24  1  0  0  0  0
 11 12  2  0  0  0  0
 11 25  1  0  0  0  0
 12 26  1  0  0  0  0
 12 27  1  0  0  0  0
M  END
> <PUBCHEM_COMPOUND_CID>
62141254

> <PUBCHEM_COMPOUND_CANONICALIZED>
1

> <PUBCHEM_CACTVS_COMPLEXITY>
142

> <PUBCHEM_CACTVS_HBOND_ACCEPTOR>
1

> <PUBCHEM_CACTVS_HBOND_DONOR>
1

> <PUBCHEM_CACTVS_ROTATABLE_BOND>
3

> <PUBCHEM_CACTVS_SUBSKEYS>
AAADccByAAAAAAAAAAAAAAAAAAAAAAAAAAAwAAAAAAAAAAABAAAAHAAQAAAADAjBGAQywILAAACAAiRCQACCAAAhAgAIiIAIZIgIICLAkZGEIAhgkADIyAcQgIAOiAAAQAAQAAAQAACAACAAAAAAAAAAAA==

> <PUBCHEM_IUPAC_OPENEYE_NAME>
N-allyl-3,4-dimethyl-aniline

> <PUBCHEM_IUPAC_CAS_NAME>
3,4-dimethyl-N-prop-2-enylaniline

> <PUBCHEM_IUPAC_NAME>
3,4-dimethyl-N-prop-2-enylaniline

> <PUBCHEM_IUPAC_SYSTEMATIC_NAME>
3,4-dimethyl-N-prop-2-enyl-aniline

> <PUBCHEM_IUPAC_TRADITIONAL_NAME>
allyl-(3,4-dimethylphenyl)amine

> <PUBCHEM_IUPAC_INCHI>
InChI=1S/C11H15N/c1-4-7-12-11-6-5-9(2)10(3)8-11/h4-6,8,12H,1,7H2,2-3H3

> <PUBCHEM_IUPAC_INCHIKEY>
XMNIKUBSRVTNNH-UHFFFAOYSA-N

> <PUBCHEM_XLOGP3>
3.8

> <PUBCHEM_EXACT_MASS>
161.120449

> <PUBCHEM_MOLECULAR_FORMULA>
C11H15N

> <PUBCHEM_MOLECULAR_WEIGHT>
161.2435

> <PUBCHEM_OPENEYE_CAN_SMILES>
CC1=C(C=C(C=C1)NCC=C)C

> <PUBCHEM_OPENEYE_ISO_SMILES>
CC1=C(C=C(C=C1)NCC=C)C

> <PUBCHEM_CACTVS_TPSA>
12

> <PUBCHEM_MONOISOTOPIC_WEIGHT>
161.120449

> <PUBCHEM_TOTAL_CHARGE>
0

> <PUBCHEM_HEAVY_ATOM_COUNT>
12

> <PUBCHEM_ATOM_DEF_STEREO_COUNT>
0

> <PUBCHEM_ATOM_UDEF_STEREO_COUNT>
0

> <PUBCHEM_BOND_DEF_STEREO_COUNT>
0

> <PUBCHEM_BOND_UDEF_STEREO_COUNT>
0

> <PUBCHEM_ISOTOPIC_ATOM_COUNT>
0

> <PUBCHEM_COMPONENT_COUNT>
1

> <PUBCHEM_CACTVS_TAUTO_COUNT>
1

> <PUBCHEM_COORDINATE_TYPE>
1
5
255

> <PUBCHEM_BONDANNOTATIONS>
2  3  8
2  5  8
3  6  8
4  5  8
4  7  8
6  7  8

$$$$
62141813
  -OEChem-11301218222D

 27 27  0     0  0  0  0  0  0999 V2000
    3.7320    1.0000    0.0000 N   0  0  0  0  0  0  0  0  0  0  0  0
    2.8660   -1.5000    0.0000 C   0  0  0  0  0  0  0  0  0  0  0  0
    2.0000   -2.0000    0.0000 C   0  0  0  0  0  0  0  0  0  0  0  0
    3.7320    0.0000    0.0000 C   0  0  0  0  0  0  0  0  0  0  0  0
    2.8660   -0.5000    0.0000 C   0  0  0  0  0  0  0  0  0  0  0  0
    3.7320   -2.0000    0.0000 C   0  0  0  0  0  0  0  0  0  0  0  0
    4.5981   -0.5000    0.0000 C   0  0  0  0  0  0  0  0  0  0  0  0
    4.5981   -1.5000    0.0000 C   0  0  0  0  0  0  0  0  0  0  0  0
    2.0000   -3.0000    0.0000 C   0  0  0  0  0  0  0  0  0  0  0  0
    4.5981    1.5000    0.0000 C   0  0  0  0  0  0  0  0  0  0  0  0
    4.5981    2.5000    0.0000 C   0  0  0  0  0  0  0  0  0  0  0  0
    5.4641    3.0000    0.0000 C   0  0  0  0  0  0  0  0  0  0  0  0
    1.7880   -1.4174    0.0000 H   0  0  0  0  0  0  0  0  0  0  0  0
    1.3894   -2.1077    0.0000 H   0  0  0  0  0  0  0  0  0  0  0  0
    2.3291   -0.1900    0.0000 H   0  0  0  0  0  0  0  0  0  0  0  0
    3.7320   -2.6200    0.0000 H   0  0  0  0  0  0  0  0  0  0  0  0
    5.1350   -0.1900    0.0000 H   0  0  0  0  0  0  0  0  0  0  0  0
    3.1951    1.3100    0.0000 H   0  0  0  0  0  0  0  0  0  0  0  0
    5.1350   -1.8100    0.0000 H   0  0  0  0  0  0  0  0  0  0  0  0
    1.3800   -3.0000    0.0000 H   0  0  0  0  0  0  0  0  0  0  0  0
    2.0000   -3.6200    0.0000 H   0  0  0  0  0  0  0  0  0  0  0  0
    2.6200   -3.0000    0.0000 H   0  0  0  0  0  0  0  0  0  0  0  0
    4.8101    0.9174    0.0000 H   0  0  0  0  0  0  0  0  0  0  0  0
    5.2087    1.6077    0.0000 H   0  0  0  0  0  0  0  0  0  0  0  0
    4.0611    2.8100    0.0000 H   0  0  0  0  0  0  0  0  0  0  0  0
    6.0010    2.6900    0.0000 H   0  0  0  0  0  0  0  0  0  0  0  0
    5.4641    3.6200    0.0000 H   0  0  0  0  0  0  0  0  0  0  0  0
  1  4  1  0  0  0  0
  1 10  1  0  0  0  0
  1 18  1  0  0  0  0
  2  3  1  0  0  0  0
  2  5  2  0  0  0  0
  2  6  1  0  0  0  0
  3  9  1  0  0  0  0
  3 13  1  0  0  0  0
  3 14  1  0  0  0  0
  4  5  1  0  0  0  0
  4  7  2  0  0  0  0
  5 15  1  0  0  0  0
  6  8  2  0  0  0  0
  6 16  1  0  0  0  0
  7  8  1  0  0  0  0
  7 17  1  0  0  0  0
  8 19  1  0  0  0  0
  9 20  1  0  0  0  0
  9 21  1  0  0  0  0
  9 22  1  0  0  0  0
 10 11  1  0  0  0  0
 10 23  1  0  0  0  0
 10 24  1  0  0  0  0
 11 12  2  0  0  0  0
 11 25  1  0  0  0  0
 12 26  1  0  0  0  0
 12 27  1  0  0  0  0
M  END
> <PUBCHEM_COMPOUND_CID>
62141813

> <PUBCHEM_COMPOUND_CANONICALIZED>
1

> <PUBCHEM_CACTVS_COMPLEXITY>
131

> <PUBCHEM_CACTVS_HBOND_ACCEPTOR>
1

> <PUBCHEM_CACTVS_HBOND_DONOR>
1

> <PUBCHEM_CACTVS_ROTATABLE_BOND>
4

> <PUBCHEM_CACTVS_SUBSKEYS>
AAADccByAAAAAAAAAAAAAAAAAAAAAAAAAAAwAAAAAAAAAAABAAAAHAAQAAAADAjBGAQywILAAACAAiRCQACCAAAhAgAIiIAIZIgIICLAkZGEIAhgkADIyAcQgIAOAAAAQAAAAAAAAACAAAAAAAAAAAAAAA==

> <PUBCHEM_IUPAC_OPENEYE_NAME>
N-allyl-3-ethyl-aniline

> <PUBCHEM_IUPAC_CAS_NAME>
3-ethyl-N-prop-2-enylaniline

> <PUBCHEM_IUPAC_NAME>
3-ethyl-N-prop-2-enylaniline

> <PUBCHEM_IUPAC_SYSTEMATIC_NAME>
3-ethyl-N-prop-2-enyl-aniline

> <PUBCHEM_IUPAC_TRADITIONAL_NAME>
allyl-(3-ethylphenyl)amine

> <PUBCHEM_IUPAC_INCHI>
InChI=1S/C11H15N/c1-3-8-12-11-7-5-6-10(4-2)9-11/h3,5-7,9,12H,1,4,8H2,2H3

> <PUBCHEM_IUPAC_INCHIKEY>
QOKRQIIQVTVPQV-UHFFFAOYSA-N

> <PUBCHEM_XLOGP3>
3.4

> <PUBCHEM_EXACT_MASS>
161.120449

> <PUBCHEM_MOLECULAR_FORMULA>
C11H15N

> <PUBCHEM_MOLECULAR_WEIGHT>
161.2435

> <PUBCHEM_OPENEYE_CAN_SMILES>
CCC1=CC(=CC=C1)NCC=C

> <PUBCHEM_OPENEYE_ISO_SMILES>
CCC1=CC(=CC=C1)NCC=C

> <PUBCHEM_CACTVS_TPSA>
12

> <PUBCHEM_MONOISOTOPIC_WEIGHT>
161.120449

> <PUBCHEM_TOTAL_CHARGE>
0

> <PUBCHEM_HEAVY_ATOM_COUNT>
12

> <PUBCHEM_ATOM_DEF_STEREO_COUNT>
0

> <PUBCHEM_ATOM_UDEF_STEREO_COUNT>
0

> <PUBCHEM_BOND_DEF_STEREO_COUNT>
0

> <PUBCHEM_BOND_UDEF_STEREO_COUNT>
0

> <PUBCHEM_ISOTOPIC_ATOM_COUNT>
0

> <PUBCHEM_COMPONENT_COUNT>
1

> <PUBCHEM_CACTVS_TAUTO_COUNT>
1

> <PUBCHEM_COORDINATE_TYPE>
1
5
255

> <PUBCHEM_BONDANNOTATIONS>
2  5  8
2  6  8
4  5  8
4  7  8
6  8  8
7  8  8

$$$$
