17504997
  -OEChem-11301217212D

 33 34  0     1  0  0  0  0  0999 V2000
    5.4641   -3.1012    0.0000 Cl  0  0  0  0  0  0  0  0  0  0  0  0
    5.4641   -0.1012    0.0000 O   0  0  0  0  0  0  0  0  0  0  0  0
    3.7320   -0.1012    0.0000 N   0  0  0  0  0  0  0  0  0  0  0  0
    5.4641    1.8988    0.0000 C   0  0  3  0  0  0  0  0  0  0  0  0
    6.3776    1.4921    0.0000 C   0  0  0  0  0  0  0  0  0  0  0  0
    7.0468    2.2352    0.0000 C   0  0  0  0  0  0  0  0  0  0  0  0
    4.5981    1.3988    0.0000 C   0  0  0  0  0  0  0  0  0  0  0  0
    5.5686    2.8933    0.0000 C   0  0  0  0  0  0  0  0  0  0  0  0
    6.5468    3.1012    0.0000 C   0  0  0  0  0  0  0  0  0  0  0  0
    4.5981    0.3988    0.0000 C   0  0  0  0  0  0  0  0  0  0  0  0
    3.7320   -1.1012    0.0000 C   0  0  0  0  0  0  0  0  0  0  0  0
    2.8660   -1.6012    0.0000 C   0  0  0  0  0  0  0  0  0  0  0  0
    4.5981   -1.6012    0.0000 C   0  0  0  0  0  0  0  0  0  0  0  0
    2.8660   -2.6012    0.0000 C   0  0  0  0  0  0  0  0  0  0  0  0
    2.0000   -1.1012    0.0000 C   0  0  0  0  0  0  0  0  0  0  0  0
    4.5981   -2.6012    0.0000 C   0  0  0  0  0  0  0  0  0  0  0  0
    3.7320   -3.1012    0.0000 C   0  0  0  0  0  0  0  0  0  0  0  0
    4.9441    2.2365    0.0000 H   0  0  0  0  0  0  0  0  0  0  0  0
    6.0677    0.9551    0.0000 H   0  0  0  0  0  0  0  0  0  0  0  0
    6.8792    1.1276    0.0000 H   0  0  0  0  0  0  0  0  0  0  0  0
    7.4616    1.7744    0.0000 H   0  0  0  0  0  0  0  0  0  0  0  0
    7.5484    2.5996    0.0000 H   0  0  0  0  0  0  0  0  0  0  0  0
    4.3860    1.9814    0.0000 H   0  0  0  0  0  0  0  0  0  0  0  0
    3.9875    1.2911    0.0000 H   0  0  0  0  0  0  0  0  0  0  0  0
    5.1079    3.3082    0.0000 H   0  0  0  0  0  0  0  0  0  0  0  0
    6.7990    3.6676    0.0000 H   0  0  0  0  0  0  0  0  0  0  0  0
    3.1951    0.2088    0.0000 H   0  0  0  0  0  0  0  0  0  0  0  0
    5.1350   -1.2912    0.0000 H   0  0  0  0  0  0  0  0  0  0  0  0
    2.3291   -2.9112    0.0000 H   0  0  0  0  0  0  0  0  0  0  0  0
    2.3100   -0.5643    0.0000 H   0  0  0  0  0  0  0  0  0  0  0  0
    1.4631   -0.7912    0.0000 H   0  0  0  0  0  0  0  0  0  0  0  0
    1.6900   -1.6382    0.0000 H   0  0  0  0  0  0  0  0  0  0  0  0
    3.7320   -3.7212    0.0000 H   0  0  0  0  0  0  0  0  0  0  0  0
  1 16  1  0  0  0  0
  2 10  2  0  0  0  0
  3 10  1  0  0  0  0
  3 11  1  0  0  0  0
  3 27  1  0  0  0  0
  4  5  1  0  0  0  0
  4  7  1  0  0  0  0
  4  8  1  0  0  0  0
  4 18  1  0  0  0  0
  5  6  1  0  0  0  0
  5 19  1  0  0  0  0
  5 20  1  0  0  0  0
  6  9  1  0  0  0  0
  6 21  1  0  0  0  0
  6 22  1  0  0  0  0
  7 10  1  0  0  0  0
  7 23  1  0  0  0  0
  7 24  1  0  0  0  0
  8  9  2  0  0  0  0
  8 25  1  0  0  0  0
  9 26  1  0  0  0  0
 11 12  2  0  0  0  0
 11 13  1  0  0  0  0
 12 14  1  0  0  0  0
 12 15  1  0  0  0  0
 13 16  2  0  0  0  0
 13 28  1  0  0  0  0
 14 17  2  0  0  0  0
 14 29  1  0  0  0  0
 15 30  1  0  0  0  0
 15 31  1  0  0  0  0
 15 32  1  0  0  0  0
 16 17  1  0  0  0  0
 17 33  1  0  0  0  0
M  END
> <PUBCHEM_COMPOUND_CID>
17504997

> <PUBCHEM_COMPOUND_CANONICALIZED>
1

> <PUBCHEM_CACTVS_COMPLEXITY>
303

> <PUBCHEM_CACTVS_HBOND_ACCEPTOR>
1

> <PUBCHEM_CACTVS_HBOND_DONOR>
1

> <PUBCHEM_CACTVS_ROTATABLE_BOND>
3

> <PUBCHEM_CACTVS_SUBSKEYS>
AAADceByIAAEAAAAAAAAAAAAAAAAAQAAAAAwAAAAAAAAAAABAAAAHgIQAAAADQqBmCAywILAAACIAiVSUACCAAAhBwAIiAEAZogIIDLBk5GEIAhglADIyAcYiAAOBAAAAAICAAAIAAAABAQAAAAAAAAAAA==

> <PUBCHEM_IUPAC_OPENEYE_NAME>
N-(5-chloro-2-methyl-phenyl)-2-cyclopent-2-en-1-yl-acetamide

> <PUBCHEM_IUPAC_CAS_NAME>
N-(5-chloro-2-methylphenyl)-2-(1-cyclopent-2-enyl)acetamide

> <PUBCHEM_IUPAC_NAME>
N-(5-chloro-2-methylphenyl)-2-cyclopent-2-en-1-ylacetamide

> <PUBCHEM_IUPAC_SYSTEMATIC_NAME>
N-(5-chloranyl-2-methyl-phenyl)-2-cyclopent-2-en-1-yl-ethanamide

> <PUBCHEM_IUPAC_TRADITIONAL_NAME>
N-(5-chloro-2-methyl-phenyl)-2-cyclopent-2-en-1-yl-acetamide

> <PUBCHEM_IUPAC_INCHI>
InChI=1S/C14H16ClNO/c1-10-6-7-12(15)9-13(10)16-14(17)8-11-4-2-3-5-11/h2,4,6-7,9,11H,3,5,8H2,1H3,(H,16,17)

> <PUBCHEM_IUPAC_INCHIKEY>
MFCHLLYONJUOMO-UHFFFAOYSA-N

> <PUBCHEM_XLOGP3>
3.3

> <PUBCHEM_EXACT_MASS>
249.092042

> <PUBCHEM_MOLECULAR_FORMULA>
C14H16ClNO

> <PUBCHEM_MOLECULAR_WEIGHT>
249.73594

> <PUBCHEM_OPENEYE_CAN_SMILES>
CC1=C(C=C(C=C1)Cl)NC(=O)CC2CCC=C2

> <PUBCHEM_OPENEYE_ISO_SMILES>
CC1=C(C=C(C=C1)Cl)NC(=O)CC2CCC=C2

> <PUBCHEM_CACTVS_TPSA>
29.1

> <PUBCHEM_MONOISOTOPIC_WEIGHT>
249.092042

> <PUBCHEM_TOTAL_CHARGE>
0

> <PUBCHEM_HEAVY_ATOM_COUNT>
17

> <PUBCHEM_ATOM_DEF_STEREO_COUNT>
0

> <PUBCHEM_ATOM_UDEF_STEREO_COUNT>
1

> <PUBCHEM_BOND_DEF_STEREO_COUNT>
0

> <PUBCHEM_BOND_UDEF_STEREO_COUNT>
0

> <PUBCHEM_ISOTOPIC_ATOM_COUNT>
0

> <PUBCHEM_COMPONENT_COUNT>
1

> <PUBCHEM_CACTVS_TAUTO_COUNT>
3

> <PUBCHEM_COORDINATE_TYPE>
1
5
255

> <PUBCHEM_BONDANNOTATIONS>
11  12  8
11  13  8
12  14  8
13  16  8
14  17  8
16  17  8
4  7  3

$$$$
17524911
  -OEChem-11301217222D

 39 41  0     0  0  0  0  0  0999 V2000
    7.9244    0.2276    0.0000 O   0  0  0  0  0  0  0  0  0  0  0  0
    6.2781    0.7656    0.0000 N   0  0  0  0  0  0  0  0  0  0  0  0
    4.6783   -2.9511    0.0000 N   0  0  0  0  0  0  0  0  0  0  0  0
    7.5673    1.9224    0.0000 C   0  0  0  0  0  0  0  0  0  0  0  0
    8.5189    2.2298    0.0000 C   0  0  0  0  0  0  0  0  0  0  0  0
    6.9809    2.7324    0.0000 C   0  0  0  0  0  0  0  0  0  0  0  0
    8.5206    3.2298    0.0000 C   0  0  0  0  0  0  0  0  0  0  0  0
    7.5701    3.5404    0.0000 C   0  0  0  0  0  0  0  0  0  0  0  0
    7.2566    0.9719    0.0000 C   0  0  0  0  0  0  0  0  0  0  0  0
    5.9674   -0.1849    0.0000 C   0  0  0  0  0  0  0  0  0  0  0  0
    4.9889   -0.3911    0.0000 C   0  0  0  0  0  0  0  0  0  0  0  0
    4.6783   -1.3416    0.0000 C   0  0  0  0  0  0  0  0  0  0  0  0
    3.7320   -1.6464    0.0000 C   0  0  0  0  0  0  0  0  0  0  0  0
    3.7320   -2.6464    0.0000 C   0  0  0  0  0  0  0  0  0  0  0  0
    5.2619   -2.1464    0.0000 C   0  0  0  0  0  0  0  0  0  0  0  0
    2.8660   -1.1464    0.0000 C   0  0  0  0  0  0  0  0  0  0  0  0
    2.8660   -3.1464    0.0000 C   0  0  0  0  0  0  0  0  0  0  0  0
    2.0000   -1.6464    0.0000 C   0  0  0  0  0  0  0  0  0  0  0  0
    2.0000   -2.6464    0.0000 C   0  0  0  0  0  0  0  0  0  0  0  0
    6.9547    1.8264    0.0000 H   0  0  0  0  0  0  0  0  0  0  0  0
    8.6467    1.6231    0.0000 H   0  0  0  0  0  0  0  0  0  0  0  0
    9.1356    2.2935    0.0000 H   0  0  0  0  0  0  0  0  0  0  0  0
    6.5208    3.1481    0.0000 H   0  0  0  0  0  0  0  0  0  0  0  0
    6.5194    2.3184    0.0000 H   0  0  0  0  0  0  0  0  0  0  0  0
    7.8232    4.1064    0.0000 H   0  0  0  0  0  0  0  0  0  0  0  0
    7.0337    3.8513    0.0000 H   0  0  0  0  0  0  0  0  0  0  0  0
    9.1371    3.1639    0.0000 H   0  0  0  0  0  0  0  0  0  0  0  0
    8.6505    3.8360    0.0000 H   0  0  0  0  0  0  0  0  0  0  0  0
    5.8640    1.2271    0.0000 H   0  0  0  0  0  0  0  0  0  0  0  0
    5.9880   -0.8045    0.0000 H   0  0  0  0  0  0  0  0  0  0  0  0
    6.5812   -0.2722    0.0000 H   0  0  0  0  0  0  0  0  0  0  0  0
    4.9684    0.2286    0.0000 H   0  0  0  0  0  0  0  0  0  0  0  0
    4.3751   -0.3038    0.0000 H   0  0  0  0  0  0  0  0  0  0  0  0
    5.8819   -2.1464    0.0000 H   0  0  0  0  0  0  0  0  0  0  0  0
    4.8709   -3.5404    0.0000 H   0  0  0  0  0  0  0  0  0  0  0  0
    2.8660   -0.5264    0.0000 H   0  0  0  0  0  0  0  0  0  0  0  0
    2.8660   -3.7664    0.0000 H   0  0  0  0  0  0  0  0  0  0  0  0
    1.4631   -1.3364    0.0000 H   0  0  0  0  0  0  0  0  0  0  0  0
    1.4631   -2.9564    0.0000 H   0  0  0  0  0  0  0  0  0  0  0  0
  1  9  2  0  0  0  0
  2  9  1  0  0  0  0
  2 10  1  0  0  0  0
  2 29  1  0  0  0  0
  3 14  1  0  0  0  0
  3 15  1  0  0  0  0
  3 35  1  0  0  0  0
  4  5  1  0  0  0  0
  4  6  1  0  0  0  0
  4  9  1  0  0  0  0
  4 20  1  0  0  0  0
  5  7  1  0  0  0  0
  5 21  1  0  0  0  0
  5 22  1  0  0  0  0
  6  8  1  0  0  0  0
  6 23  1  0  0  0  0
  6 24  1  0  0  0  0
  7  8  1  0  0  0  0
  7 27  1  0  0  0  0
  7 28  1  0  0  0  0
  8 25  1  0  0  0  0
  8 26  1  0  0  0  0
 10 11  1  0  0  0  0
 10 30  1  0  0  0  0
 10 31  1  0  0  0  0
 11 12  1  0  0  0  0
 11 32  1  0  0  0  0
 11 33  1  0  0  0  0
 12 13  1  0  0  0  0
 12 15  2  0  0  0  0
 13 14  1  0  0  0  0
 13 16  2  0  0  0  0
 14 17  2  0  0  0  0
 15 34  1  0  0  0  0
 16 18  1  0  0  0  0
 16 36  1  0  0  0  0
 17 19  1  0  0  0  0
 17 37  1  0  0  0  0
 18 19  2  0  0  0  0
 18 38  1  0  0  0  0
 19 39  1  0  0  0  0
M  END
> <PUBCHEM_COMPOUND_CID>
17524911

> <PUBCHEM_COMPOUND_CANONICALIZED>
1

> <PUBCHEM_CACTVS_COMPLEXITY>
312

> <PUBCHEM_CACTVS_HBOND_ACCEPTOR>
1

> <PUBCHEM_CACTVS_HBOND_DONOR>
2

> <PUBCHEM_CACTVS_ROTATABLE_BOND>
4

> <PUBCHEM_CACTVS_SUBSKEYS>
AAADceB7IAAAAAAAAAAAAAAAAAAAAeIAAAAwAAAAAAAAAFgB8AAAHgAQAAAADQjBngQ8wPLJkACoAzV3VACCgCAxAiAI2aE4ZJgIIPLAkZGEIAhglgDIyAcYiMAOgAAAAAACAAAAAAAAAAQAAAAAAAAAAA==

> <PUBCHEM_IUPAC_OPENEYE_NAME>
N-[2-(1H-indol-3-yl)ethyl]cyclopentanecarboxamide

> <PUBCHEM_IUPAC_CAS_NAME>
N-[2-(1H-indol-3-yl)ethyl]cyclopentanecarboxamide

> <PUBCHEM_IUPAC_NAME>
N-[2-(1H-indol-3-yl)ethyl]cyclopentanecarboxamide

> <PUBCHEM_IUPAC_SYSTEMATIC_NAME>
N-[2-(1H-indol-3-yl)ethyl]cyclopentanecarboxamide

> <PUBCHEM_IUPAC_TRADITIONAL_NAME>
N-[2-(1H-indol-3-yl)ethyl]cyclopentanecarboxamide

> <PUBCHEM_IUPAC_INCHI>
InChI=1S/C16H20N2O/c19-16(12-5-1-2-6-12)17-10-9-13-11-18-15-8-4-3-7-14(13)15/h3-4,7-8,11-12,18H,1-2,5-6,9-10H2,(H,17,19)

> <PUBCHEM_IUPAC_INCHIKEY>
VAQIUOGQPRXINX-UHFFFAOYSA-N

> <PUBCHEM_XLOGP3>
3.3

> <PUBCHEM_EXACT_MASS>
256.157563

> <PUBCHEM_MOLECULAR_FORMULA>
C16H20N2O

> <PUBCHEM_MOLECULAR_WEIGHT>
256.3428

> <PUBCHEM_OPENEYE_CAN_SMILES>
C1CCC(C1)C(=O)NCCC2=CNC3=CC=CC=C32

> <PUBCHEM_OPENEYE_ISO_SMILES>
C1CCC(C1)C(=O)NCCC2=CNC3=CC=CC=C32

> <PUBCHEM_CACTVS_TPSA>
44.9

> <PUBCHEM_MONOISOTOPIC_WEIGHT>
256.157563

> <PUBCHEM_TOTAL_CHARGE>
0

> <PUBCHEM_HEAVY_ATOM_COUNT>
19

> <PUBCHEM_ATOM_DEF_STEREO_COUNT>
0

> <PUBCHEM_ATOM_UDEF_STEREO_COUNT>
0

> <PUBCHEM_BOND_DEF_STEREO_COUNT>
0

> <PUBCHEM_BOND_UDEF_STEREO_COUNT>
0

> <PUBCHEM_ISOTOPIC_ATOM_COUNT>
0

> <PUBCHEM_COMPONENT_COUNT>
1

> <PUBCHEM_CACTVS_TAUTO_COUNT>
2

> <PUBCHEM_COORDINATE_TYPE>
1
5
255

> <PUBCHEM_BONDANNOTATIONS>
12  13  8
12  15  8
13  14  8
13  16  8
14  17  8
16  18  8
17  19  8
18  19  8
3  14  8
3  15  8

$$$$
