39903079
  -OEChem-03221309352D

 42 44  0     1  0  0  0  0  0999 V2000
    6.8644   -0.7108    0.0000 O   0  0  0  0  0  0  0  0  0  0  0  0
    5.1914   -1.1591    0.0000 N   0  0  0  0  0  0  0  0  0  0  0  0
    3.2005    0.8068    0.0000 C   0  0  2  0  0  0  0  0  0  0  0  0
    3.6783    2.7554    0.0000 C   0  0  0  0  0  0  0  0  0  0  0  0
    2.9417    1.7727    0.0000 C   0  0  1  0  0  0  0  0  0  0  0  0
    4.9325   -0.1932    0.0000 C   0  0  2  0  0  0  0  0  0  0  0  0
    1.3685    0.0480    0.0000 C   0  0  0  0  0  0  0  0  0  0  0  0
    5.4325    0.6728    0.0000 C   0  0  0  0  0  0  0  0  0  0  0  0
    1.1097    1.0139    0.0000 C   0  0  0  0  0  0  0  0  0  0  0  0
    3.4593   -0.1591    0.0000 C   0  0  0  0  0  0  0  0  0  0  0  0
    3.5738    3.7499    0.0000 C   0  0  0  0  0  0  0  0  0  0  0  0
    4.5918    3.1621    0.0000 C   0  0  0  0  0  0  0  0  0  0  0  0
    6.1573   -1.4179    0.0000 C   0  0  0  0  0  0  0  0  0  0  0  0
    6.4161   -2.3838    0.0000 C   0  0  0  0  0  0  0  0  0  0  0  0
    7.2821   -2.8838    0.0000 C   0  0  0  0  0  0  0  0  0  0  0  0
    5.9161   -3.2499    0.0000 C   0  0  0  0  0  0  0  0  0  0  0  0
    6.7821   -3.7499    0.0000 C   0  0  0  0  0  0  0  0  0  0  0  0
    2.7217    2.5938    0.0000 H   0  0  0  0  0  0  0  0  0  0  0  0
    4.4406   -0.5706    0.0000 H   0  0  0  0  0  0  0  0  0  0  0  0
    1.5806   -0.5346    0.0000 H   0  0  0  0  0  0  0  0  0  0  0  0
    0.7772   -0.1384    0.0000 H   0  0  0  0  0  0  0  0  0  0  0  0
    5.7032    1.2306    0.0000 H   0  0  0  0  0  0  0  0  0  0  0  0
    5.9802    0.3823    0.0000 H   0  0  0  0  0  0  0  0  0  0  0  0
    0.5184    0.8275    0.0000 H   0  0  0  0  0  0  0  0  0  0  0  0
    0.8977    1.5965    0.0000 H   0  0  0  0  0  0  0  0  0  0  0  0
    4.0582    0.0014    0.0000 H   0  0  0  0  0  0  0  0  0  0  0  0
    3.6198   -0.7580    0.0000 H   0  0  0  0  0  0  0  0  0  0  0  0
    2.8604   -0.3196    0.0000 H   0  0  0  0  0  0  0  0  0  0  0  0
    4.3396    3.7285    0.0000 H   0  0  0  0  0  0  0  0  0  0  0  0
    5.1582    3.4143    0.0000 H   0  0  0  0  0  0  0  0  0  0  0  0
    4.8440    2.5957    0.0000 H   0  0  0  0  0  0  0  0  0  0  0  0
    2.9571    3.6851    0.0000 H   0  0  0  0  0  0  0  0  0  0  0  0
    3.5089    4.3665    0.0000 H   0  0  0  0  0  0  0  0  0  0  0  0
    4.1903    3.8147    0.0000 H   0  0  0  0  0  0  0  0  0  0  0  0
    4.7529   -1.5975    0.0000 H   0  0  0  0  0  0  0  0  0  0  0  0
    6.9080   -2.0064    0.0000 H   0  0  0  0  0  0  0  0  0  0  0  0
    5.6061   -3.7868    0.0000 H   0  0  0  0  0  0  0  0  0  0  0  0
    5.3792   -2.9399    0.0000 H   0  0  0  0  0  0  0  0  0  0  0  0
    7.5921   -2.3469    0.0000 H   0  0  0  0  0  0  0  0  0  0  0  0
    7.8191   -3.1938    0.0000 H   0  0  0  0  0  0  0  0  0  0  0  0
    7.3191   -4.0599    0.0000 H   0  0  0  0  0  0  0  0  0  0  0  0
    6.4721   -4.2868    0.0000 H   0  0  0  0  0  0  0  0  0  0  0  0
  1 13  2  0  0  0  0
  6  2  1  6  0  0  0
  2 13  1  0  0  0  0
  2 35  1  0  0  0  0
  3  4  1  0  0  0  0
  3  6  1  0  0  0  0
  3  7  1  0  0  0  0
  3 10  1  1  0  0  0
  4  5  1  0  0  0  0
  4 11  1  0  0  0  0
  4 12  1  0  0  0  0
  5  8  1  0  0  0  0
  5  9  1  0  0  0  0
  5 18  1  6  0  0  0
  6  8  1  0  0  0  0
  6 19  1  0  0  0  0
  7  9  1  0  0  0  0
  7 20  1  0  0  0  0
  7 21  1  0  0  0  0
  8 22  1  0  0  0  0
  8 23  1  0  0  0  0
  9 24  1  0  0  0  0
  9 25  1  0  0  0  0
 10 26  1  0  0  0  0
 10 27  1  0  0  0  0
 10 28  1  0  0  0  0
 11 32  1  0  0  0  0
 11 33  1  0  0  0  0
 11 34  1  0  0  0  0
 12 29  1  0  0  0  0
 12 30  1  0  0  0  0
 12 31  1  0  0  0  0
 13 14  1  0  0  0  0
 14 15  1  0  0  0  0
 14 16  1  0  0  0  0
 14 36  1  0  0  0  0
 15 17  1  0  0  0  0
 15 39  1  0  0  0  0
 15 40  1  0  0  0  0
 16 17  1  0  0  0  0
 16 37  1  0  0  0  0
 16 38  1  0  0  0  0
 17 41  1  0  0  0  0
 17 42  1  0  0  0  0
M  END
> <PUBCHEM_COMPOUND_CID>
39903079

> <PUBCHEM_COMPOUND_CANONICALIZED>
1

> <PUBCHEM_CACTVS_COMPLEXITY>
345

> <PUBCHEM_CACTVS_HBOND_ACCEPTOR>
1

> <PUBCHEM_CACTVS_HBOND_DONOR>
1

> <PUBCHEM_CACTVS_ROTATABLE_BOND>
2

> <PUBCHEM_CACTVS_SUBSKEYS>
AAADceByIAAAAAAAAAAAAAAAAABgAYMAAAAwAAAAAAAAAAAAAAAAHgAQAAAADyjBgAQCAALAAAAIAAEQEAAAAAAAAAAAAIEIAAAAABIAgAAEAAAAFgCAAAEYgMAPgAAAAAAAAACAAACAAAQAASAACQAAAA==

> <PUBCHEM_IUPAC_OPENEYE_NAME>
N-[(1R,2S,4R)-1,7,7-trimethylnorbornan-2-yl]cyclobutanecarboxamide

> <PUBCHEM_IUPAC_CAS_NAME>
N-[(1R,3S,4R)-4,7,7-trimethyl-3-bicyclo[2.2.1]heptanyl]cyclobutanecarboxamide

> <PUBCHEM_IUPAC_NAME>
N-[(1R,3S,4R)-4,7,7-trimethyl-3-bicyclo[2.2.1]heptanyl]cyclobutanecarboxamide

> <PUBCHEM_IUPAC_SYSTEMATIC_NAME>
N-[(1R,3S,4R)-4,7,7-trimethyl-3-bicyclo[2.2.1]heptanyl]cyclobutanecarboxamide

> <PUBCHEM_IUPAC_TRADITIONAL_NAME>
N-[(1R,2S,4R)-1,7,7-trimethylnorbornan-2-yl]cyclobutanecarboxamide

> <PUBCHEM_IUPAC_INCHI>
InChI=1S/C15H25NO/c1-14(2)11-7-8-15(14,3)12(9-11)16-13(17)10-5-4-6-10/h10-12H,4-9H2,1-3H3,(H,16,17)/t11-,12+,15+/m1/s1

> <PUBCHEM_IUPAC_INCHIKEY>
SMPVRQCMQBFONQ-XUJVJEKNSA-N

> <PUBCHEM_XLOGP3>
3.7

> <PUBCHEM_EXACT_MASS>
235.193614

> <PUBCHEM_MOLECULAR_FORMULA>
C15H25NO

> <PUBCHEM_MOLECULAR_WEIGHT>
235.3651

> <PUBCHEM_OPENEYE_CAN_SMILES>
CC1(C2CCC1(C(C2)NC(=O)C3CCC3)C)C

> <PUBCHEM_OPENEYE_ISO_SMILES>
C[C@@]12CC[C@@H](C1(C)C)C[C@@H]2NC(=O)C3CCC3

> <PUBCHEM_CACTVS_TPSA>
29.1

> <PUBCHEM_MONOISOTOPIC_WEIGHT>
235.193614

> <PUBCHEM_TOTAL_CHARGE>
0

> <PUBCHEM_HEAVY_ATOM_COUNT>
17

> <PUBCHEM_ATOM_DEF_STEREO_COUNT>
3

> <PUBCHEM_ATOM_UDEF_STEREO_COUNT>
0

> <PUBCHEM_BOND_DEF_STEREO_COUNT>
0

> <PUBCHEM_BOND_UDEF_STEREO_COUNT>
0

> <PUBCHEM_ISOTOPIC_ATOM_COUNT>
0

> <PUBCHEM_COMPONENT_COUNT>
1

> <PUBCHEM_CACTVS_TAUTO_COUNT>
2

> <PUBCHEM_COORDINATE_TYPE>
1
5
255

> <PUBCHEM_BONDANNOTATIONS>
6  2  6
3  10  5
5  18  6

$$$$
39903080
  -OEChem-03221309352D

 42 44  0     1  0  0  0  0  0999 V2000
    2.4177   -0.7108    0.0000 O   0  0  0  0  0  0  0  0  0  0  0  0
    4.0908   -1.1591    0.0000 N   0  0  0  0  0  0  0  0  0  0  0  0
    6.0816    0.8068    0.0000 C   0  0  1  0  0  0  0  0  0  0  0  0
    5.6038    2.7554    0.0000 C   0  0  0  0  0  0  0  0  0  0  0  0
    6.3405    1.7727    0.0000 C   0  0  2  0  0  0  0  0  0  0  0  0
    4.3496   -0.1932    0.0000 C   0  0  2  0  0  0  0  0  0  0  0  0
    7.9136    0.0480    0.0000 C   0  0  0  0  0  0  0  0  0  0  0  0
    3.8496    0.6728    0.0000 C   0  0  0  0  0  0  0  0  0  0  0  0
    8.1724    1.0139    0.0000 C   0  0  0  0  0  0  0  0  0  0  0  0
    5.8228   -0.1591    0.0000 C   0  0  0  0  0  0  0  0  0  0  0  0
    5.7084    3.7499    0.0000 C   0  0  0  0  0  0  0  0  0  0  0  0
    4.6903    3.1621    0.0000 C   0  0  0  0  0  0  0  0  0  0  0  0
    3.1248   -1.4179    0.0000 C   0  0  0  0  0  0  0  0  0  0  0  0
    2.8660   -2.3838    0.0000 C   0  0  0  0  0  0  0  0  0  0  0  0
    2.0000   -2.8838    0.0000 C   0  0  0  0  0  0  0  0  0  0  0  0
    3.3660   -3.2499    0.0000 C   0  0  0  0  0  0  0  0  0  0  0  0
    2.5000   -3.7499    0.0000 C   0  0  0  0  0  0  0  0  0  0  0  0
    6.5605    2.5938    0.0000 H   0  0  0  0  0  0  0  0  0  0  0  0
    4.8415   -0.5706    0.0000 H   0  0  0  0  0  0  0  0  0  0  0  0
    7.7015   -0.5346    0.0000 H   0  0  0  0  0  0  0  0  0  0  0  0
    8.5049   -0.1384    0.0000 H   0  0  0  0  0  0  0  0  0  0  0  0
    3.5789    1.2306    0.0000 H   0  0  0  0  0  0  0  0  0  0  0  0
    3.3019    0.3823    0.0000 H   0  0  0  0  0  0  0  0  0  0  0  0
    8.7637    0.8275    0.0000 H   0  0  0  0  0  0  0  0  0  0  0  0
    8.3845    1.5965    0.0000 H   0  0  0  0  0  0  0  0  0  0  0  0
    5.2240    0.0014    0.0000 H   0  0  0  0  0  0  0  0  0  0  0  0
    5.6624   -0.7580    0.0000 H   0  0  0  0  0  0  0  0  0  0  0  0
    6.4217   -0.3196    0.0000 H   0  0  0  0  0  0  0  0  0  0  0  0
    4.9425    3.7285    0.0000 H   0  0  0  0  0  0  0  0  0  0  0  0
    4.1239    3.4143    0.0000 H   0  0  0  0  0  0  0  0  0  0  0  0
    4.4381    2.5957    0.0000 H   0  0  0  0  0  0  0  0  0  0  0  0
    6.3250    3.6851    0.0000 H   0  0  0  0  0  0  0  0  0  0  0  0
    5.7732    4.3665    0.0000 H   0  0  0  0  0  0  0  0  0  0  0  0
    5.0918    3.8147    0.0000 H   0  0  0  0  0  0  0  0  0  0  0  0
    4.5292   -1.5975    0.0000 H   0  0  0  0  0  0  0  0  0  0  0  0
    2.3742   -2.0064    0.0000 H   0  0  0  0  0  0  0  0  0  0  0  0
    3.6760   -3.7868    0.0000 H   0  0  0  0  0  0  0  0  0  0  0  0
    3.9030   -2.9399    0.0000 H   0  0  0  0  0  0  0  0  0  0  0  0
    1.6900   -2.3469    0.0000 H   0  0  0  0  0  0  0  0  0  0  0  0
    1.4631   -3.1938    0.0000 H   0  0  0  0  0  0  0  0  0  0  0  0
    1.9631   -4.0599    0.0000 H   0  0  0  0  0  0  0  0  0  0  0  0
    2.8100   -4.2868    0.0000 H   0  0  0  0  0  0  0  0  0  0  0  0
  1 13  2  0  0  0  0
  6  2  1  1  0  0  0
  2 13  1  0  0  0  0
  2 35  1  0  0  0  0
  3  4  1  0  0  0  0
  3  6  1  0  0  0  0
  3  7  1  0  0  0  0
  3 10  1  1  0  0  0
  4  5  1  0  0  0  0
  4 11  1  0  0  0  0
  4 12  1  0  0  0  0
  5  8  1  0  0  0  0
  5  9  1  0  0  0  0
  5 18  1  6  0  0  0
  6  8  1  0  0  0  0
  6 19  1  0  0  0  0
  7  9  1  0  0  0  0
  7 20  1  0  0  0  0
  7 21  1  0  0  0  0
  8 22  1  0  0  0  0
  8 23  1  0  0  0  0
  9 24  1  0  0  0  0
  9 25  1  0  0  0  0
 10 26  1  0  0  0  0
 10 27  1  0  0  0  0
 10 28  1  0  0  0  0
 11 32  1  0  0  0  0
 11 33  1  0  0  0  0
 11 34  1  0  0  0  0
 12 29  1  0  0  0  0
 12 30  1  0  0  0  0
 12 31  1  0  0  0  0
 13 14  1  0  0  0  0
 14 15  1  0  0  0  0
 14 16  1  0  0  0  0
 14 36  1  0  0  0  0
 15 17  1  0  0  0  0
 15 39  1  0  0  0  0
 15 40  1  0  0  0  0
 16 17  1  0  0  0  0
 16 37  1  0  0  0  0
 16 38  1  0  0  0  0
 17 41  1  0  0  0  0
 17 42  1  0  0  0  0
M  END
> <PUBCHEM_COMPOUND_CID>
39903080

> <PUBCHEM_COMPOUND_CANONICALIZED>
1

> <PUBCHEM_CACTVS_COMPLEXITY>
345

> <PUBCHEM_CACTVS_HBOND_ACCEPTOR>
1

> <PUBCHEM_CACTVS_HBOND_DONOR>
1

> <PUBCHEM_CACTVS_ROTATABLE_BOND>
2

> <PUBCHEM_CACTVS_SUBSKEYS>
AAADceByIAAAAAAAAAAAAAAAAABgAYMAAAAwAAAAAAAAAAAAAAAAHgAQAAAADyjBgAQCAALAAAAIAAEQEAAAAAAAAAAAAIEIAAAAABIAgAAEAAAAFgCAAAEYgMAPgAAAAAAAAACAAACAAAQAASAACQAAAA==

> <PUBCHEM_IUPAC_OPENEYE_NAME>
N-[(1S,2S,4S)-1,7,7-trimethylnorbornan-2-yl]cyclobutanecarboxamide

> <PUBCHEM_IUPAC_CAS_NAME>
N-[(1S,3S,4S)-4,7,7-trimethyl-3-bicyclo[2.2.1]heptanyl]cyclobutanecarboxamide

> <PUBCHEM_IUPAC_NAME>
N-[(1S,3S,4S)-4,7,7-trimethyl-3-bicyclo[2.2.1]heptanyl]cyclobutanecarboxamide

> <PUBCHEM_IUPAC_SYSTEMATIC_NAME>
N-[(1S,3S,4S)-4,7,7-trimethyl-3-bicyclo[2.2.1]heptanyl]cyclobutanecarboxamide

> <PUBCHEM_IUPAC_TRADITIONAL_NAME>
N-[(1S,2S,4S)-1,7,7-trimethylnorbornan-2-yl]cyclobutanecarboxamide

> <PUBCHEM_IUPAC_INCHI>
InChI=1S/C15H25NO/c1-14(2)11-7-8-15(14,3)12(9-11)16-13(17)10-5-4-6-10/h10-12H,4-9H2,1-3H3,(H,16,17)/t11-,12-,15+/m0/s1

> <PUBCHEM_IUPAC_INCHIKEY>
SMPVRQCMQBFONQ-SLEUVZQESA-N

> <PUBCHEM_XLOGP3>
3.7

> <PUBCHEM_EXACT_MASS>
235.193614

> <PUBCHEM_MOLECULAR_FORMULA>
C15H25NO

> <PUBCHEM_MOLECULAR_WEIGHT>
235.3651

> <PUBCHEM_OPENEYE_CAN_SMILES>
CC1(C2CCC1(C(C2)NC(=O)C3CCC3)C)C

> <PUBCHEM_OPENEYE_ISO_SMILES>
C[C@]12CC[C@H](C1(C)C)C[C@@H]2NC(=O)C3CCC3

> <PUBCHEM_CACTVS_TPSA>
29.1

> <PUBCHEM_MONOISOTOPIC_WEIGHT>
235.193614

> <PUBCHEM_TOTAL_CHARGE>
0

> <PUBCHEM_HEAVY_ATOM_COUNT>
17

> <PUBCHEM_ATOM_DEF_STEREO_COUNT>
3

> <PUBCHEM_ATOM_UDEF_STEREO_COUNT>
0

> <PUBCHEM_BOND_DEF_STEREO_COUNT>
0

> <PUBCHEM_BOND_UDEF_STEREO_COUNT>
0

> <PUBCHEM_ISOTOPIC_ATOM_COUNT>
0

> <PUBCHEM_COMPONENT_COUNT>
1

> <PUBCHEM_CACTVS_TAUTO_COUNT>
2

> <PUBCHEM_COORDINATE_TYPE>
1
5
255

> <PUBCHEM_BONDANNOTATIONS>
6  2  5
3  10  5
5  18  6

$$$$
39911813
  -OEChem-03221309352D

 21 21  0     0  0  0  0  0  0999 V2000
    2.0000   -0.9050    0.0000 Cl  0  0  0  0  0  0  0  0  0  0  0  0
    2.8660    0.5950    0.0000 O   0  0  0  0  0  0  0  0  0  0  0  0
    4.5981    0.5950    0.0000 N   0  0  0  0  0  0  0  0  0  0  0  0
    3.7320   -0.9050    0.0000 C   0  0  0  0  0  0  0  0  0  0  0  0
    2.8660   -1.4050    0.0000 C   0  0  0  0  0  0  0  0  0  0  0  0
    4.5981   -1.4050    0.0000 C   0  0  0  0  0  0  0  0  0  0  0  0
    3.7320    0.0950    0.0000 C   0  0  0  0  0  0  0  0  0  0  0  0
    2.8660   -2.4050    0.0000 C   0  0  0  0  0  0  0  0  0  0  0  0
    4.5981   -2.4050    0.0000 C   0  0  0  0  0  0  0  0  0  0  0  0
    3.7320   -2.9050    0.0000 C   0  0  0  0  0  0  0  0  0  0  0  0
    4.5981    1.5950    0.0000 C   0  0  0  0  0  0  0  0  0  0  0  0
    5.4641    2.0950    0.0000 C   0  0  0  0  0  0  0  0  0  0  0  0
    6.3301    2.5950    0.0000 C   0  0  0  0  0  0  0  0  0  0  0  0
    5.1350   -1.0950    0.0000 H   0  0  0  0  0  0  0  0  0  0  0  0
    2.3291   -2.7150    0.0000 H   0  0  0  0  0  0  0  0  0  0  0  0
    5.1350   -2.7150    0.0000 H   0  0  0  0  0  0  0  0  0  0  0  0
    5.1350    0.2850    0.0000 H   0  0  0  0  0  0  0  0  0  0  0  0
    3.7320   -3.5250    0.0000 H   0  0  0  0  0  0  0  0  0  0  0  0
    4.3860    2.1776    0.0000 H   0  0  0  0  0  0  0  0  0  0  0  0
    3.9875    1.4873    0.0000 H   0  0  0  0  0  0  0  0  0  0  0  0
    6.8671    2.9050    0.0000 H   0  0  0  0  0  0  0  0  0  0  0  0
  1  5  1  0  0  0  0
  2  7  2  0  0  0  0
  3  7  1  0  0  0  0
  3 11  1  0  0  0  0
  3 17  1  0  0  0  0
  4  5  1  0  0  0  0
  4  6  2  0  0  0  0
  4  7  1  0  0  0  0
  5  8  2  0  0  0  0
  6  9  1  0  0  0  0
  6 14  1  0  0  0  0
  8 10  1  0  0  0  0
  8 15  1  0  0  0  0
  9 10  2  0  0  0  0
  9 16  1  0  0  0  0
 10 18  1  0  0  0  0
 11 12  1  0  0  0  0
 11 19  1  0  0  0  0
 11 20  1  0  0  0  0
 12 13  3  0  0  0  0
 13 21  1  0  0  0  0
M  END
> <PUBCHEM_COMPOUND_CID>
39911813

> <PUBCHEM_COMPOUND_CANONICALIZED>
1

> <PUBCHEM_CACTVS_COMPLEXITY>
230

> <PUBCHEM_CACTVS_HBOND_ACCEPTOR>
1

> <PUBCHEM_CACTVS_HBOND_DONOR>
1

> <PUBCHEM_CACTVS_ROTATABLE_BOND>
2

> <PUBCHEM_CACTVS_SUBSKEYS>
AAADccByIAAEAAAAAAAAAAAAAAAAAAAAAAAwAAAAAAAAAAABAAAAHgIQAAAADALBmCQwAILAAADIGiFSEACCAAAkBQAIiIEIBsgIIDKBlxGEIQhghgCIjYcYiACOAAAAAAABAAAAAAAAAAIAAAAAAAAAAA==

> <PUBCHEM_IUPAC_OPENEYE_NAME>
2-chloro-N-prop-2-ynyl-benzamide

> <PUBCHEM_IUPAC_CAS_NAME>
2-chloro-N-prop-2-ynylbenzamide

> <PUBCHEM_IUPAC_NAME>
2-chloro-N-prop-2-ynylbenzamide

> <PUBCHEM_IUPAC_SYSTEMATIC_NAME>
2-chloranyl-N-prop-2-ynyl-benzamide

> <PUBCHEM_IUPAC_TRADITIONAL_NAME>
2-chloro-N-propargyl-benzamide

> <PUBCHEM_IUPAC_INCHI>
InChI=1S/C10H8ClNO/c1-2-7-12-10(13)8-5-3-4-6-9(8)11/h1,3-6H,7H2,(H,12,13)

> <PUBCHEM_IUPAC_INCHIKEY>
CKFUCJZCEMJFTD-UHFFFAOYSA-N

> <PUBCHEM_XLOGP3>
1

> <PUBCHEM_EXACT_MASS>
193.029442

> <PUBCHEM_MOLECULAR_FORMULA>
C10H8ClNO

> <PUBCHEM_MOLECULAR_WEIGHT>
193.62962

> <PUBCHEM_OPENEYE_CAN_SMILES>
C#CCNC(=O)C1=CC=CC=C1Cl

> <PUBCHEM_OPENEYE_ISO_SMILES>
C#CCNC(=O)C1=CC=CC=C1Cl

> <PUBCHEM_CACTVS_TPSA>
29.1

> <PUBCHEM_MONOISOTOPIC_WEIGHT>
193.029442

> <PUBCHEM_TOTAL_CHARGE>
0

> <PUBCHEM_HEAVY_ATOM_COUNT>
13

> <PUBCHEM_ATOM_DEF_STEREO_COUNT>
0

> <PUBCHEM_ATOM_UDEF_STEREO_COUNT>
0

> <PUBCHEM_BOND_DEF_STEREO_COUNT>
0

> <PUBCHEM_BOND_UDEF_STEREO_COUNT>
0

> <PUBCHEM_ISOTOPIC_ATOM_COUNT>
0

> <PUBCHEM_COMPONENT_COUNT>
1

> <PUBCHEM_CACTVS_TAUTO_COUNT>
2

> <PUBCHEM_COORDINATE_TYPE>
1
5
255

> <PUBCHEM_BONDANNOTATIONS>
4  5  8
4  6  8
5  8  8
6  9  8
8  10  8
9  10  8

$$$$
39911819
  -OEChem-03221309352D

 24 24  0     0  0  0  0  0  0999 V2000
    2.8660    0.5950    0.0000 O   0  0  0  0  0  0  0  0  0  0  0  0
    4.5981    0.5950    0.0000 N   0  0  0  0  0  0  0  0  0  0  0  0
    3.7320   -0.9050    0.0000 C   0  0  0  0  0  0  0  0  0  0  0  0
    2.8660   -1.4050    0.0000 C   0  0  0  0  0  0  0  0  0  0  0  0
    4.5981   -1.4050    0.0000 C   0  0  0  0  0  0  0  0  0  0  0  0
    2.8660   -2.4050    0.0000 C   0  0  0  0  0  0  0  0  0  0  0  0
    3.7320    0.0950    0.0000 C   0  0  0  0  0  0  0  0  0  0  0  0
    2.0000   -0.9050    0.0000 C   0  0  0  0  0  0  0  0  0  0  0  0
    4.5981   -2.4050    0.0000 C   0  0  0  0  0  0  0  0  0  0  0  0
    3.7320   -2.9050    0.0000 C   0  0  0  0  0  0  0  0  0  0  0  0
    4.5981    1.5950    0.0000 C   0  0  0  0  0  0  0  0  0  0  0  0
    5.4641    2.0950    0.0000 C   0  0  0  0  0  0  0  0  0  0  0  0
    6.3301    2.5950    0.0000 C   0  0  0  0  0  0  0  0  0  0  0  0
    5.1350   -1.0950    0.0000 H   0  0  0  0  0  0  0  0  0  0  0  0
    2.3291   -2.7150    0.0000 H   0  0  0  0  0  0  0  0  0  0  0  0
    2.3100   -0.3681    0.0000 H   0  0  0  0  0  0  0  0  0  0  0  0
    1.4631   -0.5950    0.0000 H   0  0  0  0  0  0  0  0  0  0  0  0
    1.6900   -1.4419    0.0000 H   0  0  0  0  0  0  0  0  0  0  0  0
    5.1350   -2.7150    0.0000 H   0  0  0  0  0  0  0  0  0  0  0  0
    3.7320   -3.5250    0.0000 H   0  0  0  0  0  0  0  0  0  0  0  0
    5.1350    0.2850    0.0000 H   0  0  0  0  0  0  0  0  0  0  0  0
    4.3860    2.1776    0.0000 H   0  0  0  0  0  0  0  0  0  0  0  0
    3.9875    1.4873    0.0000 H   0  0  0  0  0  0  0  0  0  0  0  0
    6.8671    2.9050    0.0000 H   0  0  0  0  0  0  0  0  0  0  0  0
  1  7  2  0  0  0  0
  2  7  1  0  0  0  0
  2 11  1  0  0  0  0
  2 21  1  0  0  0  0
  3  4  1  0  0  0  0
  3  5  2  0  0  0  0
  3  7  1  0  0  0  0
  4  6  2  0  0  0  0
  4  8  1  0  0  0  0
  5  9  1  0  0  0  0
  5 14  1  0  0  0  0
  6 10  1  0  0  0  0
  6 15  1  0  0  0  0
  8 16  1  0  0  0  0
  8 17  1  0  0  0  0
  8 18  1  0  0  0  0
  9 10  2  0  0  0  0
  9 19  1  0  0  0  0
 10 20  1  0  0  0  0
 11 12  1  0  0  0  0
 11 22  1  0  0  0  0
 11 23  1  0  0  0  0
 12 13  3  0  0  0  0
 13 24  1  0  0  0  0
M  END
> <PUBCHEM_COMPOUND_CID>
39911819

> <PUBCHEM_COMPOUND_CANONICALIZED>
1

> <PUBCHEM_CACTVS_COMPLEXITY>
226

> <PUBCHEM_CACTVS_HBOND_ACCEPTOR>
1

> <PUBCHEM_CACTVS_HBOND_DONOR>
1

> <PUBCHEM_CACTVS_ROTATABLE_BOND>
2

> <PUBCHEM_CACTVS_SUBSKEYS>
AAADccByIAAAAAAAAAAAAAAAAAAAAAAAAAAwAAAAAAAAAAABAAAAHgAQAAAADADBmAQyAILAAADIGiFSEACCAAAkAAAIiIEIBMgIIDKAlRGEIQhghgCIiYcYiICOgAAAAAAQAAAAAAAAACAAAAAAAAAAAA==

> <PUBCHEM_IUPAC_OPENEYE_NAME>
2-methyl-N-prop-2-ynyl-benzamide

> <PUBCHEM_IUPAC_CAS_NAME>
2-methyl-N-prop-2-ynylbenzamide

> <PUBCHEM_IUPAC_NAME>
2-methyl-N-prop-2-ynylbenzamide

> <PUBCHEM_IUPAC_SYSTEMATIC_NAME>
2-methyl-N-prop-2-ynyl-benzamide

> <PUBCHEM_IUPAC_TRADITIONAL_NAME>
2-methyl-N-propargyl-benzamide

> <PUBCHEM_IUPAC_INCHI>
InChI=1S/C11H11NO/c1-3-8-12-11(13)10-7-5-4-6-9(10)2/h1,4-7H,8H2,2H3,(H,12,13)

> <PUBCHEM_IUPAC_INCHIKEY>
GNSGTECQOSWKGG-UHFFFAOYSA-N

> <PUBCHEM_XLOGP3>
1.1

> <PUBCHEM_EXACT_MASS>
173.084064

> <PUBCHEM_MOLECULAR_FORMULA>
C11H11NO

> <PUBCHEM_MOLECULAR_WEIGHT>
173.21114

> <PUBCHEM_OPENEYE_CAN_SMILES>
CC1=CC=CC=C1C(=O)NCC#C

> <PUBCHEM_OPENEYE_ISO_SMILES>
CC1=CC=CC=C1C(=O)NCC#C

> <PUBCHEM_CACTVS_TPSA>
29.1

> <PUBCHEM_MONOISOTOPIC_WEIGHT>
173.084064

> <PUBCHEM_TOTAL_CHARGE>
0

> <PUBCHEM_HEAVY_ATOM_COUNT>
13

> <PUBCHEM_ATOM_DEF_STEREO_COUNT>
0

> <PUBCHEM_ATOM_UDEF_STEREO_COUNT>
0

> <PUBCHEM_BOND_DEF_STEREO_COUNT>
0

> <PUBCHEM_BOND_UDEF_STEREO_COUNT>
0

> <PUBCHEM_ISOTOPIC_ATOM_COUNT>
0

> <PUBCHEM_COMPONENT_COUNT>
1

> <PUBCHEM_CACTVS_TAUTO_COUNT>
2

> <PUBCHEM_COORDINATE_TYPE>
1
5
255

> <PUBCHEM_BONDANNOTATIONS>
3  4  8
3  5  8
4  6  8
5  9  8
6  10  8
9  10  8

$$$$
39911823
  -OEChem-03221309352D

 24 24  0     0  0  0  0  0  0999 V2000
    2.8660    0.5950    0.0000 O   0  0  0  0  0  0  0  0  0  0  0  0
    4.5981    0.5950    0.0000 N   0  0  0  0  0  0  0  0  0  0  0  0
    3.7320   -0.9050    0.0000 C   0  0  0  0  0  0  0  0  0  0  0  0
    2.8660   -2.4050    0.0000 C   0  0  0  0  0  0  0  0  0  0  0  0
    2.8660   -1.4050    0.0000 C   0  0  0  0  0  0  0  0  0  0  0  0
    4.5981   -1.4050    0.0000 C   0  0  0  0  0  0  0  0  0  0  0  0
    3.7320   -2.9050    0.0000 C   0  0  0  0  0  0  0  0  0  0  0  0
    4.5981   -2.4050    0.0000 C   0  0  0  0  0  0  0  0  0  0  0  0
    3.7320    0.0950    0.0000 C   0  0  0  0  0  0  0  0  0  0  0  0
    2.0000   -2.9050    0.0000 C   0  0  0  0  0  0  0  0  0  0  0  0
    4.5981    1.5950    0.0000 C   0  0  0  0  0  0  0  0  0  0  0  0
    5.4641    2.0950    0.0000 C   0  0  0  0  0  0  0  0  0  0  0  0
    6.3301    2.5950    0.0000 C   0  0  0  0  0  0  0  0  0  0  0  0
    2.3291   -1.0950    0.0000 H   0  0  0  0  0  0  0  0  0  0  0  0
    5.1350   -1.0950    0.0000 H   0  0  0  0  0  0  0  0  0  0  0  0
    3.7320   -3.5250    0.0000 H   0  0  0  0  0  0  0  0  0  0  0  0
    5.1350   -2.7150    0.0000 H   0  0  0  0  0  0  0  0  0  0  0  0
    1.6900   -2.3681    0.0000 H   0  0  0  0  0  0  0  0  0  0  0  0
    1.4631   -3.2150    0.0000 H   0  0  0  0  0  0  0  0  0  0  0  0
    2.3100   -3.4419    0.0000 H   0  0  0  0  0  0  0  0  0  0  0  0
    5.1350    0.2850    0.0000 H   0  0  0  0  0  0  0  0  0  0  0  0
    4.3860    2.1776    0.0000 H   0  0  0  0  0  0  0  0  0  0  0  0
    3.9875    1.4873    0.0000 H   0  0  0  0  0  0  0  0  0  0  0  0
    6.8671    2.9050    0.0000 H   0  0  0  0  0  0  0  0  0  0  0  0
  1  9  2  0  0  0  0
  2  9  1  0  0  0  0
  2 11  1  0  0  0  0
  2 21  1  0  0  0  0
  3  5  1  0  0  0  0
  3  6  2  0  0  0  0
  3  9  1  0  0  0  0
  4  5  2  0  0  0  0
  4  7  1  0  0  0  0
  4 10  1  0  0  0  0
  5 14  1  0  0  0  0
  6  8  1  0  0  0  0
  6 15  1  0  0  0  0
  7  8  2  0  0  0  0
  7 16  1  0  0  0  0
  8 17  1  0  0  0  0
 10 18  1  0  0  0  0
 10 19  1  0  0  0  0
 10 20  1  0  0  0  0
 11 12  1  0  0  0  0
 11 22  1  0  0  0  0
 11 23  1  0  0  0  0
 12 13  3  0  0  0  0
 13 24  1  0  0  0  0
M  END
> <PUBCHEM_COMPOUND_CID>
39911823

> <PUBCHEM_COMPOUND_CANONICALIZED>
1

> <PUBCHEM_CACTVS_COMPLEXITY>
226

> <PUBCHEM_CACTVS_HBOND_ACCEPTOR>
1

> <PUBCHEM_CACTVS_HBOND_DONOR>
1

> <PUBCHEM_CACTVS_ROTATABLE_BOND>
2

> <PUBCHEM_CACTVS_SUBSKEYS>
AAADccByIAAAAAAAAAAAAAAAAAAAAAAAAAAwAAAAAAAAAAABAAAAHgAQAAAADADBmAQyAILAAADIGiFSEACCAAAkAAAIiIEIBMgIIDKAlRGEIQhghgCIiYcYiECOAAACAAAAAAAAAAQAAAAAAAAAAAAAAA==

> <PUBCHEM_IUPAC_OPENEYE_NAME>
3-methyl-N-prop-2-ynyl-benzamide

> <PUBCHEM_IUPAC_CAS_NAME>
3-methyl-N-prop-2-ynylbenzamide

> <PUBCHEM_IUPAC_NAME>
3-methyl-N-prop-2-ynylbenzamide

> <PUBCHEM_IUPAC_SYSTEMATIC_NAME>
3-methyl-N-prop-2-ynyl-benzamide

> <PUBCHEM_IUPAC_TRADITIONAL_NAME>
3-methyl-N-propargyl-benzamide

> <PUBCHEM_IUPAC_INCHI>
InChI=1S/C11H11NO/c1-3-7-12-11(13)10-6-4-5-9(2)8-10/h1,4-6,8H,7H2,2H3,(H,12,13)

> <PUBCHEM_IUPAC_INCHIKEY>
VLKXXUSFTDMKGH-UHFFFAOYSA-N

> <PUBCHEM_XLOGP3>
1.6

> <PUBCHEM_EXACT_MASS>
173.084064

> <PUBCHEM_MOLECULAR_FORMULA>
C11H11NO

> <PUBCHEM_MOLECULAR_WEIGHT>
173.21114

> <PUBCHEM_OPENEYE_CAN_SMILES>
CC1=CC=CC(=C1)C(=O)NCC#C

> <PUBCHEM_OPENEYE_ISO_SMILES>
CC1=CC=CC(=C1)C(=O)NCC#C

> <PUBCHEM_CACTVS_TPSA>
29.1

> <PUBCHEM_MONOISOTOPIC_WEIGHT>
173.084064

> <PUBCHEM_TOTAL_CHARGE>
0

> <PUBCHEM_HEAVY_ATOM_COUNT>
13

> <PUBCHEM_ATOM_DEF_STEREO_COUNT>
0

> <PUBCHEM_ATOM_UDEF_STEREO_COUNT>
0

> <PUBCHEM_BOND_DEF_STEREO_COUNT>
0

> <PUBCHEM_BOND_UDEF_STEREO_COUNT>
0

> <PUBCHEM_ISOTOPIC_ATOM_COUNT>
0

> <PUBCHEM_COMPONENT_COUNT>
1

> <PUBCHEM_CACTVS_TAUTO_COUNT>
2

> <PUBCHEM_COORDINATE_TYPE>
1
5
255

> <PUBCHEM_BONDANNOTATIONS>
3  5  8
3  6  8
4  5  8
4  7  8
6  8  8
7  8  8

$$$$
