43275259
  -OEChem-11301217512D

 29 30  0     0  0  0  0  0  0999 V2000
    2.0000   -0.9830    0.0000 Br  0  0  0  0  0  0  0  0  0  0  0  0
    2.8660    0.5170    0.0000 O   0  0  0  0  0  0  0  0  0  0  0  0
    4.5981    0.5170    0.0000 N   0  0  0  0  0  0  0  0  0  0  0  0
    5.4641    2.0170    0.0000 C   0  0  0  0  0  0  0  0  0  0  0  0
    6.4300    1.7582    0.0000 C   0  0  0  0  0  0  0  0  0  0  0  0
    5.7229    2.9830    0.0000 C   0  0  0  0  0  0  0  0  0  0  0  0
    6.6888    2.7241    0.0000 C   0  0  0  0  0  0  0  0  0  0  0  0
    4.5981    1.5170    0.0000 C   0  0  0  0  0  0  0  0  0  0  0  0
    3.7320    0.0170    0.0000 C   0  0  0  0  0  0  0  0  0  0  0  0
    3.7320   -0.9830    0.0000 C   0  0  0  0  0  0  0  0  0  0  0  0
    2.8660   -1.4830    0.0000 C   0  0  0  0  0  0  0  0  0  0  0  0
    4.5981   -1.4830    0.0000 C   0  0  0  0  0  0  0  0  0  0  0  0
    2.8660   -2.4830    0.0000 C   0  0  0  0  0  0  0  0  0  0  0  0
    4.5981   -2.4830    0.0000 C   0  0  0  0  0  0  0  0  0  0  0  0
    3.7320   -2.9830    0.0000 C   0  0  0  0  0  0  0  0  0  0  0  0
    4.9722    2.3945    0.0000 H   0  0  0  0  0  0  0  0  0  0  0  0
    6.2696    1.1593    0.0000 H   0  0  0  0  0  0  0  0  0  0  0  0
    7.0289    1.5978    0.0000 H   0  0  0  0  0  0  0  0  0  0  0  0
    5.8834    3.5818    0.0000 H   0  0  0  0  0  0  0  0  0  0  0  0
    5.1241    3.1434    0.0000 H   0  0  0  0  0  0  0  0  0  0  0  0
    7.2877    2.5637    0.0000 H   0  0  0  0  0  0  0  0  0  0  0  0
    6.8493    3.3230    0.0000 H   0  0  0  0  0  0  0  0  0  0  0  0
    4.3860    2.0996    0.0000 H   0  0  0  0  0  0  0  0  0  0  0  0
    3.9875    1.4094    0.0000 H   0  0  0  0  0  0  0  0  0  0  0  0
    5.1350    0.2070    0.0000 H   0  0  0  0  0  0  0  0  0  0  0  0
    5.1350   -1.1730    0.0000 H   0  0  0  0  0  0  0  0  0  0  0  0
    2.3291   -2.7930    0.0000 H   0  0  0  0  0  0  0  0  0  0  0  0
    5.1350   -2.7930    0.0000 H   0  0  0  0  0  0  0  0  0  0  0  0
    3.7320   -3.6030    0.0000 H   0  0  0  0  0  0  0  0  0  0  0  0
  1 11  1  0  0  0  0
  2  9  2  0  0  0  0
  3  8  1  0  0  0  0
  3  9  1  0  0  0  0
  3 25  1  0  0  0  0
  4  5  1  0  0  0  0
  4  6  1  0  0  0  0
  4  8  1  0  0  0  0
  4 16  1  0  0  0  0
  5  7  1  0  0  0  0
  5 17  1  0  0  0  0
  5 18  1  0  0  0  0
  6  7  1  0  0  0  0
  6 19  1  0  0  0  0
  6 20  1  0  0  0  0
  7 21  1  0  0  0  0
  7 22  1  0  0  0  0
  8 23  1  0  0  0  0
  8 24  1  0  0  0  0
  9 10  1  0  0  0  0
 10 11  1  0  0  0  0
 10 12  2  0  0  0  0
 11 13  2  0  0  0  0
 12 14  1  0  0  0  0
 12 26  1  0  0  0  0
 13 15  1  0  0  0  0
 13 27  1  0  0  0  0
 14 15  2  0  0  0  0
 14 28  1  0  0  0  0
 15 29  1  0  0  0  0
M  END
> <PUBCHEM_COMPOUND_CID>
43275259

> <PUBCHEM_COMPOUND_CANONICALIZED>
1

> <PUBCHEM_CACTVS_COMPLEXITY>
228

> <PUBCHEM_CACTVS_HBOND_ACCEPTOR>
1

> <PUBCHEM_CACTVS_HBOND_DONOR>
1

> <PUBCHEM_CACTVS_ROTATABLE_BOND>
3

> <PUBCHEM_CACTVS_SUBSKEYS>
AAADccByIAAAEAAAAAAAAAAAAABgAAAAAAAwAAAAAAAAAAABAAAAHgBQAAABrQDBmAQwAILAAACIAiFSEACCAAAkAAQIiIEIBOgIIDKAlRGEIQhglgCIi5cYiACOAAAAAAAAgAAAAAAAAAEAAAAAAAAAAA==

> <PUBCHEM_IUPAC_OPENEYE_NAME>
2-bromo-N-(cyclobutylmethyl)benzamide

> <PUBCHEM_IUPAC_CAS_NAME>
2-bromo-N-(cyclobutylmethyl)benzamide

> <PUBCHEM_IUPAC_NAME>
2-bromo-N-(cyclobutylmethyl)benzamide

> <PUBCHEM_IUPAC_SYSTEMATIC_NAME>
2-bromanyl-N-(cyclobutylmethyl)benzamide

> <PUBCHEM_IUPAC_TRADITIONAL_NAME>
2-bromo-N-(cyclobutylmethyl)benzamide

> <PUBCHEM_IUPAC_INCHI>
InChI=1S/C12H14BrNO/c13-11-7-2-1-6-10(11)12(15)14-8-9-4-3-5-9/h1-2,6-7,9H,3-5,8H2,(H,14,15)

> <PUBCHEM_IUPAC_INCHIKEY>
VQXALEHYBOIQFJ-UHFFFAOYSA-N

> <PUBCHEM_XLOGP3>
2.3

> <PUBCHEM_EXACT_MASS>
267.025876

> <PUBCHEM_MOLECULAR_FORMULA>
C12H14BrNO

> <PUBCHEM_MOLECULAR_WEIGHT>
268.14966

> <PUBCHEM_OPENEYE_CAN_SMILES>
C1CC(C1)CNC(=O)C2=CC=CC=C2Br

> <PUBCHEM_OPENEYE_ISO_SMILES>
C1CC(C1)CNC(=O)C2=CC=CC=C2Br

> <PUBCHEM_CACTVS_TPSA>
29.1

> <PUBCHEM_MONOISOTOPIC_WEIGHT>
267.025876

> <PUBCHEM_TOTAL_CHARGE>
0

> <PUBCHEM_HEAVY_ATOM_COUNT>
15

> <PUBCHEM_ATOM_DEF_STEREO_COUNT>
0

> <PUBCHEM_ATOM_UDEF_STEREO_COUNT>
0

> <PUBCHEM_BOND_DEF_STEREO_COUNT>
0

> <PUBCHEM_BOND_UDEF_STEREO_COUNT>
0

> <PUBCHEM_ISOTOPIC_ATOM_COUNT>
0

> <PUBCHEM_COMPONENT_COUNT>
1

> <PUBCHEM_CACTVS_TAUTO_COUNT>
2

> <PUBCHEM_COORDINATE_TYPE>
1
5
255

> <PUBCHEM_BONDANNOTATIONS>
10  11  8
10  12  8
11  13  8
12  14  8
13  15  8
14  15  8

$$$$
43298355
  -OEChem-11301217522D

 30 31  0     0  0  0  0  0  0999 V2000
    2.0000   -2.9830    0.0000 Cl  0  0  0  0  0  0  0  0  0  0  0  0
    4.5981    0.5170    0.0000 N   0  0  0  0  0  0  0  0  0  0  0  0
    5.4641    2.0170    0.0000 C   0  0  0  0  0  0  0  0  0  0  0  0
    6.4300    1.7582    0.0000 C   0  0  0  0  0  0  0  0  0  0  0  0
    5.7229    2.9830    0.0000 C   0  0  0  0  0  0  0  0  0  0  0  0
    6.6888    2.7241    0.0000 C   0  0  0  0  0  0  0  0  0  0  0  0
    4.5981    1.5170    0.0000 C   0  0  0  0  0  0  0  0  0  0  0  0
    3.7320    0.0170    0.0000 C   0  0  0  0  0  0  0  0  0  0  0  0
    3.7320   -0.9830    0.0000 C   0  0  0  0  0  0  0  0  0  0  0  0
    2.8660   -1.4830    0.0000 C   0  0  0  0  0  0  0  0  0  0  0  0
    4.5981   -1.4830    0.0000 C   0  0  0  0  0  0  0  0  0  0  0  0
    2.8660   -2.4830    0.0000 C   0  0  0  0  0  0  0  0  0  0  0  0
    4.5981   -2.4830    0.0000 C   0  0  0  0  0  0  0  0  0  0  0  0
    3.7320   -2.9830    0.0000 C   0  0  0  0  0  0  0  0  0  0  0  0
    4.9722    2.3945    0.0000 H   0  0  0  0  0  0  0  0  0  0  0  0
    6.2696    1.1593    0.0000 H   0  0  0  0  0  0  0  0  0  0  0  0
    7.0289    1.5978    0.0000 H   0  0  0  0  0  0  0  0  0  0  0  0
    5.8834    3.5818    0.0000 H   0  0  0  0  0  0  0  0  0  0  0  0
    5.1241    3.1434    0.0000 H   0  0  0  0  0  0  0  0  0  0  0  0
    7.2877    2.5637    0.0000 H   0  0  0  0  0  0  0  0  0  0  0  0
    6.8493    3.3230    0.0000 H   0  0  0  0  0  0  0  0  0  0  0  0
    4.3860    2.0996    0.0000 H   0  0  0  0  0  0  0  0  0  0  0  0
    3.9875    1.4094    0.0000 H   0  0  0  0  0  0  0  0  0  0  0  0
    5.1350    0.2070    0.0000 H   0  0  0  0  0  0  0  0  0  0  0  0
    3.5200    0.5996    0.0000 H   0  0  0  0  0  0  0  0  0  0  0  0
    3.1215   -0.0906    0.0000 H   0  0  0  0  0  0  0  0  0  0  0  0
    2.3291   -1.1730    0.0000 H   0  0  0  0  0  0  0  0  0  0  0  0
    5.1350   -1.1730    0.0000 H   0  0  0  0  0  0  0  0  0  0  0  0
    5.1350   -2.7930    0.0000 H   0  0  0  0  0  0  0  0  0  0  0  0
    3.7320   -3.6030    0.0000 H   0  0  0  0  0  0  0  0  0  0  0  0
  1 12  1  0  0  0  0
  2  7  1  0  0  0  0
  2  8  1  0  0  0  0
  2 24  1  0  0  0  0
  3  4  1  0  0  0  0
  3  5  1  0  0  0  0
  3  7  1  0  0  0  0
  3 15  1  0  0  0  0
  4  6  1  0  0  0  0
  4 16  1  0  0  0  0
  4 17  1  0  0  0  0
  5  6  1  0  0  0  0
  5 18  1  0  0  0  0
  5 19  1  0  0  0  0
  6 20  1  0  0  0  0
  6 21  1  0  0  0  0
  7 22  1  0  0  0  0
  7 23  1  0  0  0  0
  8  9  1  0  0  0  0
  8 25  1  0  0  0  0
  8 26  1  0  0  0  0
  9 10  2  0  0  0  0
  9 11  1  0  0  0  0
 10 12  1  0  0  0  0
 10 27  1  0  0  0  0
 11 13  2  0  0  0  0
 11 28  1  0  0  0  0
 12 14  2  0  0  0  0
 13 14  1  0  0  0  0
 13 29  1  0  0  0  0
 14 30  1  0  0  0  0
M  END
> <PUBCHEM_COMPOUND_CID>
43298355

> <PUBCHEM_COMPOUND_CANONICALIZED>
1

> <PUBCHEM_CACTVS_COMPLEXITY>
168

> <PUBCHEM_CACTVS_HBOND_ACCEPTOR>
1

> <PUBCHEM_CACTVS_HBOND_DONOR>
1

> <PUBCHEM_CACTVS_ROTATABLE_BOND>
4

> <PUBCHEM_CACTVS_SUBSKEYS>
AAADceByAAAEAAAAAAAAAAAAAABgAAAAAAAwAAAAAAAAAAABAAAAHAIQAAAADQLBGCQwAILAAACAAiBCAACCAAAgBQAIiIAIBogIICKBkxGEIAhgkACIiAcQgAAOAAAAIAAAAAAAAABAAAAAAAAAAAAAAA==

> <PUBCHEM_IUPAC_OPENEYE_NAME>
N-[(3-chlorophenyl)methyl]-1-cyclobutyl-methanamine

> <PUBCHEM_IUPAC_CAS_NAME>
N-[(3-chlorophenyl)methyl]-1-cyclobutylmethanamine

> <PUBCHEM_IUPAC_NAME>
N-[(3-chlorophenyl)methyl]-1-cyclobutylmethanamine

> <PUBCHEM_IUPAC_SYSTEMATIC_NAME>
N-[(3-chlorophenyl)methyl]-1-cyclobutyl-methanamine

> <PUBCHEM_IUPAC_TRADITIONAL_NAME>
(3-chlorobenzyl)-(cyclobutylmethyl)amine

> <PUBCHEM_IUPAC_INCHI>
InChI=1S/C12H16ClN/c13-12-6-2-5-11(7-12)9-14-8-10-3-1-4-10/h2,5-7,10,14H,1,3-4,8-9H2

> <PUBCHEM_IUPAC_INCHIKEY>
LDJSJRCXQGICHC-UHFFFAOYSA-N

> <PUBCHEM_XLOGP3>
3.5

> <PUBCHEM_EXACT_MASS>
209.097127

> <PUBCHEM_MOLECULAR_FORMULA>
C12H16ClN

> <PUBCHEM_MOLECULAR_WEIGHT>
209.71514

> <PUBCHEM_OPENEYE_CAN_SMILES>
C1CC(C1)CNCC2=CC(=CC=C2)Cl

> <PUBCHEM_OPENEYE_ISO_SMILES>
C1CC(C1)CNCC2=CC(=CC=C2)Cl

> <PUBCHEM_CACTVS_TPSA>
12

> <PUBCHEM_MONOISOTOPIC_WEIGHT>
209.097127

> <PUBCHEM_TOTAL_CHARGE>
0

> <PUBCHEM_HEAVY_ATOM_COUNT>
14

> <PUBCHEM_ATOM_DEF_STEREO_COUNT>
0

> <PUBCHEM_ATOM_UDEF_STEREO_COUNT>
0

> <PUBCHEM_BOND_DEF_STEREO_COUNT>
0

> <PUBCHEM_BOND_UDEF_STEREO_COUNT>
0

> <PUBCHEM_ISOTOPIC_ATOM_COUNT>
0

> <PUBCHEM_COMPONENT_COUNT>
1

> <PUBCHEM_CACTVS_TAUTO_COUNT>
1

> <PUBCHEM_COORDINATE_TYPE>
1
5
255

> <PUBCHEM_BONDANNOTATIONS>
10  12  8
11  13  8
12  14  8
13  14  8
9  10  8
9  11  8

$$$$
43298493
  -OEChem-11301217522D

 30 31  0     0  0  0  0  0  0999 V2000
    2.0000   -0.4830    0.0000 Cl  0  0  0  0  0  0  0  0  0  0  0  0
    3.7320   -3.4830    0.0000 Cl  0  0  0  0  0  0  0  0  0  0  0  0
    4.5981    1.0170    0.0000 N   0  0  0  0  0  0  0  0  0  0  0  0
    5.4641    2.5170    0.0000 C   0  0  0  0  0  0  0  0  0  0  0  0
    6.4300    2.2582    0.0000 C   0  0  0  0  0  0  0  0  0  0  0  0
    5.7229    3.4830    0.0000 C   0  0  0  0  0  0  0  0  0  0  0  0
    6.6888    3.2241    0.0000 C   0  0  0  0  0  0  0  0  0  0  0  0
    4.5981    2.0170    0.0000 C   0  0  0  0  0  0  0  0  0  0  0  0
    3.7320    0.5170    0.0000 C   0  0  0  0  0  0  0  0  0  0  0  0
    3.7320   -0.4830    0.0000 C   0  0  0  0  0  0  0  0  0  0  0  0
    2.8660   -0.9830    0.0000 C   0  0  0  0  0  0  0  0  0  0  0  0
    4.5981   -0.9830    0.0000 C   0  0  0  0  0  0  0  0  0  0  0  0
    2.8660   -1.9830    0.0000 C   0  0  0  0  0  0  0  0  0  0  0  0
    4.5981   -1.9830    0.0000 C   0  0  0  0  0  0  0  0  0  0  0  0
    3.7320   -2.4830    0.0000 C   0  0  0  0  0  0  0  0  0  0  0  0
    4.9722    2.8945    0.0000 H   0  0  0  0  0  0  0  0  0  0  0  0
    6.2696    1.6593    0.0000 H   0  0  0  0  0  0  0  0  0  0  0  0
    7.0289    2.0978    0.0000 H   0  0  0  0  0  0  0  0  0  0  0  0
    5.8834    4.0818    0.0000 H   0  0  0  0  0  0  0  0  0  0  0  0
    5.1241    3.6434    0.0000 H   0  0  0  0  0  0  0  0  0  0  0  0
    7.2877    3.0637    0.0000 H   0  0  0  0  0  0  0  0  0  0  0  0
    6.8493    3.8230    0.0000 H   0  0  0  0  0  0  0  0  0  0  0  0
    4.3860    2.5996    0.0000 H   0  0  0  0  0  0  0  0  0  0  0  0
    3.9875    1.9094    0.0000 H   0  0  0  0  0  0  0  0  0  0  0  0
    5.1350    0.7070    0.0000 H   0  0  0  0  0  0  0  0  0  0  0  0
    3.5200    1.0996    0.0000 H   0  0  0  0  0  0  0  0  0  0  0  0
    3.1215    0.4094    0.0000 H   0  0  0  0  0  0  0  0  0  0  0  0
    5.1350   -0.6730    0.0000 H   0  0  0  0  0  0  0  0  0  0  0  0
    2.3291   -2.2930    0.0000 H   0  0  0  0  0  0  0  0  0  0  0  0
    5.1350   -2.2930    0.0000 H   0  0  0  0  0  0  0  0  0  0  0  0
  1 11  1  0  0  0  0
  2 15  1  0  0  0  0
  3  8  1  0  0  0  0
  3  9  1  0  0  0  0
  3 25  1  0  0  0  0
  4  5  1  0  0  0  0
  4  6  1  0  0  0  0
  4  8  1  0  0  0  0
  4 16  1  0  0  0  0
  5  7  1  0  0  0  0
  5 17  1  0  0  0  0
  5 18  1  0  0  0  0
  6  7  1  0  0  0  0
  6 19  1  0  0  0  0
  6 20  1  0  0  0  0
  7 21  1  0  0  0  0
  7 22  1  0  0  0  0
  8 23  1  0  0  0  0
  8 24  1  0  0  0  0
  9 10  1  0  0  0  0
  9 26  1  0  0  0  0
  9 27  1  0  0  0  0
 10 11  2  0  0  0  0
 10 12  1  0  0  0  0
 11 13  1  0  0  0  0
 12 14  2  0  0  0  0
 12 28  1  0  0  0  0
 13 15  2  0  0  0  0
 13 29  1  0  0  0  0
 14 15  1  0  0  0  0
 14 30  1  0  0  0  0
M  END
> <PUBCHEM_COMPOUND_CID>
43298493

> <PUBCHEM_COMPOUND_CANONICALIZED>
1

> <PUBCHEM_CACTVS_COMPLEXITY>
194

> <PUBCHEM_CACTVS_HBOND_ACCEPTOR>
1

> <PUBCHEM_CACTVS_HBOND_DONOR>
1

> <PUBCHEM_CACTVS_ROTATABLE_BOND>
4

> <PUBCHEM_CACTVS_SUBSKEYS>
AAADccByAAAGAAAAAAAAAAAAAABgAAAAAAAwAAAAAAAAAAABAAAAHAIQAAAADQLBGCQwAILAAACAAiBCAACCAAAgBQAIiIAIBogIICKBkxGEIAhgkACIiAcQgAAOBAAAAACBAAAIAAAAAQIAAAAAAAAAAA==

> <PUBCHEM_IUPAC_OPENEYE_NAME>
1-cyclobutyl-N-[(2,4-dichlorophenyl)methyl]methanamine

> <PUBCHEM_IUPAC_CAS_NAME>
1-cyclobutyl-N-[(2,4-dichlorophenyl)methyl]methanamine

> <PUBCHEM_IUPAC_NAME>
1-cyclobutyl-N-[(2,4-dichlorophenyl)methyl]methanamine

> <PUBCHEM_IUPAC_SYSTEMATIC_NAME>
1-cyclobutyl-N-[(2,4-dichlorophenyl)methyl]methanamine

> <PUBCHEM_IUPAC_TRADITIONAL_NAME>
cyclobutylmethyl-(2,4-dichlorobenzyl)amine

> <PUBCHEM_IUPAC_INCHI>
InChI=1S/C12H15Cl2N/c13-11-5-4-10(12(14)6-11)8-15-7-9-2-1-3-9/h4-6,9,15H,1-3,7-8H2

> <PUBCHEM_IUPAC_INCHIKEY>
QYYMAHJLOJPBJK-UHFFFAOYSA-N

> <PUBCHEM_XLOGP3>
4.1

> <PUBCHEM_EXACT_MASS>
243.058155

> <PUBCHEM_MOLECULAR_FORMULA>
C12H15Cl2N

> <PUBCHEM_MOLECULAR_WEIGHT>
244.1602

> <PUBCHEM_OPENEYE_CAN_SMILES>
C1CC(C1)CNCC2=C(C=C(C=C2)Cl)Cl

> <PUBCHEM_OPENEYE_ISO_SMILES>
C1CC(C1)CNCC2=C(C=C(C=C2)Cl)Cl

> <PUBCHEM_CACTVS_TPSA>
12

> <PUBCHEM_MONOISOTOPIC_WEIGHT>
243.058155

> <PUBCHEM_TOTAL_CHARGE>
0

> <PUBCHEM_HEAVY_ATOM_COUNT>
15

> <PUBCHEM_ATOM_DEF_STEREO_COUNT>
0

> <PUBCHEM_ATOM_UDEF_STEREO_COUNT>
0

> <PUBCHEM_BOND_DEF_STEREO_COUNT>
0

> <PUBCHEM_BOND_UDEF_STEREO_COUNT>
0

> <PUBCHEM_ISOTOPIC_ATOM_COUNT>
0

> <PUBCHEM_COMPONENT_COUNT>
1

> <PUBCHEM_CACTVS_TAUTO_COUNT>
1

> <PUBCHEM_COORDINATE_TYPE>
1
5
255

> <PUBCHEM_BONDANNOTATIONS>
10  11  8
10  12  8
11  13  8
12  14  8
13  15  8
14  15  8

$$$$
43298553
  -OEChem-11301217522D

 36 38  0     0  0  0  0  0  0999 V2000
    4.0908   -0.5344    0.0000 N   0  0  0  0  0  0  0  0  0  0  0  0
    3.2247   -2.0344    0.0000 C   0  0  0  0  0  0  0  0  0  0  0  0
    2.2588   -1.7756    0.0000 C   0  0  0  0  0  0  0  0  0  0  0  0
    2.9659   -3.0003    0.0000 C   0  0  0  0  0  0  0  0  0  0  0  0
    2.0000   -2.7415    0.0000 C   0  0  0  0  0  0  0  0  0  0  0  0
    4.0908   -1.5344    0.0000 C   0  0  0  0  0  0  0  0  0  0  0  0
    4.9568   -0.0344    0.0000 C   0  0  0  0  0  0  0  0  0  0  0  0
    4.9568    0.9656    0.0000 C   0  0  0  0  0  0  0  0  0  0  0  0
    5.8228    1.4656    0.0000 C   0  0  0  0  0  0  0  0  0  0  0  0
    4.0908    1.4656    0.0000 C   0  0  0  0  0  0  0  0  0  0  0  0
    5.8228    2.4656    0.0000 C   0  0  0  0  0  0  0  0  0  0  0  0
    6.7168    0.9310    0.0000 C   0  0  0  0  0  0  0  0  0  0  0  0
    4.0908    2.4656    0.0000 C   0  0  0  0  0  0  0  0  0  0  0  0
    4.9568    2.9656    0.0000 C   0  0  0  0  0  0  0  0  0  0  0  0
    6.7168    3.0003    0.0000 C   0  0  0  0  0  0  0  0  0  0  0  0
    7.6228    1.4448    0.0000 C   0  0  0  0  0  0  0  0  0  0  0  0
    7.6228    2.4864    0.0000 C   0  0  0  0  0  0  0  0  0  0  0  0
    3.7166   -2.4118    0.0000 H   0  0  0  0  0  0  0  0  0  0  0  0
    2.4193   -1.1767    0.0000 H   0  0  0  0  0  0  0  0  0  0  0  0
    1.6600   -1.6151    0.0000 H   0  0  0  0  0  0  0  0  0  0  0  0
    2.8055   -3.5992    0.0000 H   0  0  0  0  0  0  0  0  0  0  0  0
    3.5648   -3.1608    0.0000 H   0  0  0  0  0  0  0  0  0  0  0  0
    1.4011   -2.5810    0.0000 H   0  0  0  0  0  0  0  0  0  0  0  0
    1.8395   -3.3404    0.0000 H   0  0  0  0  0  0  0  0  0  0  0  0
    4.3028   -2.1170    0.0000 H   0  0  0  0  0  0  0  0  0  0  0  0
    4.7014   -1.4267    0.0000 H   0  0  0  0  0  0  0  0  0  0  0  0
    3.5538   -0.2244    0.0000 H   0  0  0  0  0  0  0  0  0  0  0  0
    5.1688   -0.6170    0.0000 H   0  0  0  0  0  0  0  0  0  0  0  0
    5.5674    0.0733    0.0000 H   0  0  0  0  0  0  0  0  0  0  0  0
    3.5538    1.1556    0.0000 H   0  0  0  0  0  0  0  0  0  0  0  0
    6.7096    0.3110    0.0000 H   0  0  0  0  0  0  0  0  0  0  0  0
    4.9568    3.5856    0.0000 H   0  0  0  0  0  0  0  0  0  0  0  0
    3.5538    2.7756    0.0000 H   0  0  0  0  0  0  0  0  0  0  0  0
    6.7096    3.6202    0.0000 H   0  0  0  0  0  0  0  0  0  0  0  0
    8.1586    1.1328    0.0000 H   0  0  0  0  0  0  0  0  0  0  0  0
    8.1586    2.7985    0.0000 H   0  0  0  0  0  0  0  0  0  0  0  0
  1  6  1  0  0  0  0
  1  7  1  0  0  0  0
  1 27  1  0  0  0  0
  2  3  1  0  0  0  0
  2  4  1  0  0  0  0
  2  6  1  0  0  0  0
  2 18  1  0  0  0  0
  3  5  1  0  0  0  0
  3 19  1  0  0  0  0
  3 20  1  0  0  0  0
  4  5  1  0  0  0  0
  4 21  1  0  0  0  0
  4 22  1  0  0  0  0
  5 23  1  0  0  0  0
  5 24  1  0  0  0  0
  6 25  1  0  0  0  0
  6 26  1  0  0  0  0
  7  8  1  0  0  0  0
  7 28  1  0  0  0  0
  7 29  1  0  0  0  0
  8  9  1  0  0  0  0
  8 10  2  0  0  0  0
  9 11  1  0  0  0  0
  9 12  2  0  0  0  0
 10 13  1  0  0  0  0
 10 30  1  0  0  0  0
 11 14  1  0  0  0  0
 11 15  2  0  0  0  0
 12 16  1  0  0  0  0
 12 31  1  0  0  0  0
 13 14  2  0  0  0  0
 13 33  1  0  0  0  0
 14 32  1  0  0  0  0
 15 17  1  0  0  0  0
 15 34  1  0  0  0  0
 16 17  2  0  0  0  0
 16 35  1  0  0  0  0
 17 36  1  0  0  0  0
M  END
> <PUBCHEM_COMPOUND_CID>
43298553

> <PUBCHEM_COMPOUND_CANONICALIZED>
1

> <PUBCHEM_CACTVS_COMPLEXITY>
234

> <PUBCHEM_CACTVS_HBOND_ACCEPTOR>
1

> <PUBCHEM_CACTVS_HBOND_DONOR>
1

> <PUBCHEM_CACTVS_ROTATABLE_BOND>
4

> <PUBCHEM_CACTVS_SUBSKEYS>
AAADceB6AAAAAAAAAAAAAAAAAABgAAAAAAAwYAAAAAAAAADBUAAAHAAQAAAADQDBGAQwAMLAAACAAiBCAACCAAAgAAAIiIAIBIgIICKAkRGEIAhgkACIiAcQgMAOgAACAAAQAAAAAAQAACAAAAAAAAAAAA==

> <PUBCHEM_IUPAC_OPENEYE_NAME>
1-cyclobutyl-N-(1-naphthylmethyl)methanamine

> <PUBCHEM_IUPAC_CAS_NAME>
1-cyclobutyl-N-(1-naphthalenylmethyl)methanamine

> <PUBCHEM_IUPAC_NAME>
1-cyclobutyl-N-(naphthalen-1-ylmethyl)methanamine

> <PUBCHEM_IUPAC_SYSTEMATIC_NAME>
1-cyclobutyl-N-(naphthalen-1-ylmethyl)methanamine

> <PUBCHEM_IUPAC_TRADITIONAL_NAME>
cyclobutylmethyl(1-naphthylmethyl)amine

> <PUBCHEM_IUPAC_INCHI>
InChI=1S/C16H19N/c1-2-10-16-14(7-1)8-4-9-15(16)12-17-11-13-5-3-6-13/h1-2,4,7-10,13,17H,3,5-6,11-12H2

> <PUBCHEM_IUPAC_INCHIKEY>
ABYMWKGRGDBCRV-UHFFFAOYSA-N

> <PUBCHEM_XLOGP3>
3.9

> <PUBCHEM_EXACT_MASS>
225.15175

> <PUBCHEM_MOLECULAR_FORMULA>
C16H19N

> <PUBCHEM_MOLECULAR_WEIGHT>
225.32876

> <PUBCHEM_OPENEYE_CAN_SMILES>
C1CC(C1)CNCC2=CC=CC3=CC=CC=C32

> <PUBCHEM_OPENEYE_ISO_SMILES>
C1CC(C1)CNCC2=CC=CC3=CC=CC=C32

> <PUBCHEM_CACTVS_TPSA>
12

> <PUBCHEM_MONOISOTOPIC_WEIGHT>
225.15175

> <PUBCHEM_TOTAL_CHARGE>
0

> <PUBCHEM_HEAVY_ATOM_COUNT>
17

> <PUBCHEM_ATOM_DEF_STEREO_COUNT>
0

> <PUBCHEM_ATOM_UDEF_STEREO_COUNT>
0

> <PUBCHEM_BOND_DEF_STEREO_COUNT>
0

> <PUBCHEM_BOND_UDEF_STEREO_COUNT>
0

> <PUBCHEM_ISOTOPIC_ATOM_COUNT>
0

> <PUBCHEM_COMPONENT_COUNT>
1

> <PUBCHEM_CACTVS_TAUTO_COUNT>
1

> <PUBCHEM_COORDINATE_TYPE>
1
5
255

> <PUBCHEM_BONDANNOTATIONS>
10  13  8
11  14  8
11  15  8
12  16  8
13  14  8
15  17  8
16  17  8
8  10  8
8  9  8
9  11  8
9  12  8

$$$$
43298561
  -OEChem-11301217522D

 36 38  0     0  0  0  0  0  0999 V2000
    4.9568   -0.5000    0.0000 N   0  0  0  0  0  0  0  0  0  0  0  0
    3.2247   -0.5000    0.0000 C   0  0  0  0  0  0  0  0  0  0  0  0
    2.9659    0.4659    0.0000 C   0  0  0  0  0  0  0  0  0  0  0  0
    2.2588   -0.7588    0.0000 C   0  0  0  0  0  0  0  0  0  0  0  0
    2.0000    0.2071    0.0000 C   0  0  0  0  0  0  0  0  0  0  0  0
    4.0908   -1.0000    0.0000 C   0  0  0  0  0  0  0  0  0  0  0  0
    5.8228   -1.0000    0.0000 C   0  0  0  0  0  0  0  0  0  0  0  0
    6.6888   -0.5000    0.0000 C   0  0  0  0  0  0  0  0  0  0  0  0
    7.5549   -1.0000    0.0000 C   0  0  0  0  0  0  0  0  0  0  0  0
    6.6888    0.5000    0.0000 C   0  0  0  0  0  0  0  0  0  0  0  0
    8.4209   -0.5000    0.0000 C   0  0  0  0  0  0  0  0  0  0  0  0
    8.4209    0.5000    0.0000 C   0  0  0  0  0  0  0  0  0  0  0  0
    7.5549    1.0000    0.0000 C   0  0  0  0  0  0  0  0  0  0  0  0
    9.3148   -1.0347    0.0000 C   0  0  0  0  0  0  0  0  0  0  0  0
    9.3148    1.0347    0.0000 C   0  0  0  0  0  0  0  0  0  0  0  0
   10.2209   -0.5208    0.0000 C   0  0  0  0  0  0  0  0  0  0  0  0
   10.2209    0.5208    0.0000 C   0  0  0  0  0  0  0  0  0  0  0  0
    3.1438   -1.1147    0.0000 H   0  0  0  0  0  0  0  0  0  0  0  0
    3.5648    0.6264    0.0000 H   0  0  0  0  0  0  0  0  0  0  0  0
    2.8055    1.0648    0.0000 H   0  0  0  0  0  0  0  0  0  0  0  0
    1.6600   -0.9193    0.0000 H   0  0  0  0  0  0  0  0  0  0  0  0
    2.4193   -1.3577    0.0000 H   0  0  0  0  0  0  0  0  0  0  0  0
    1.8395    0.8060    0.0000 H   0  0  0  0  0  0  0  0  0  0  0  0
    1.4011    0.0466    0.0000 H   0  0  0  0  0  0  0  0  0  0  0  0
    3.6922   -1.4750    0.0000 H   0  0  0  0  0  0  0  0  0  0  0  0
    4.4893   -1.4750    0.0000 H   0  0  0  0  0  0  0  0  0  0  0  0
    4.9568    0.1200    0.0000 H   0  0  0  0  0  0  0  0  0  0  0  0
    5.4243   -1.4750    0.0000 H   0  0  0  0  0  0  0  0  0  0  0  0
    6.2214   -1.4750    0.0000 H   0  0  0  0  0  0  0  0  0  0  0  0
    7.5549   -1.6200    0.0000 H   0  0  0  0  0  0  0  0  0  0  0  0
    6.1519    0.8100    0.0000 H   0  0  0  0  0  0  0  0  0  0  0  0
    7.5549    1.6200    0.0000 H   0  0  0  0  0  0  0  0  0  0  0  0
    9.3077   -1.6546    0.0000 H   0  0  0  0  0  0  0  0  0  0  0  0
    9.3077    1.6546    0.0000 H   0  0  0  0  0  0  0  0  0  0  0  0
   10.7566   -0.8329    0.0000 H   0  0  0  0  0  0  0  0  0  0  0  0
   10.7566    0.8329    0.0000 H   0  0  0  0  0  0  0  0  0  0  0  0
  1  6  1  0  0  0  0
  1  7  1  0  0  0  0
  1 27  1  0  0  0  0
  2  3  1  0  0  0  0
  2  4  1  0  0  0  0
  2  6  1  0  0  0  0
  2 18  1  0  0  0  0
  3  5  1  0  0  0  0
  3 19  1  0  0  0  0
  3 20  1  0  0  0  0
  4  5  1  0  0  0  0
  4 21  1  0  0  0  0
  4 22  1  0  0  0  0
  5 23  1  0  0  0  0
  5 24  1  0  0  0  0
  6 25  1  0  0  0  0
  6 26  1  0  0  0  0
  7  8  1  0  0  0  0
  7 28  1  0  0  0  0
  7 29  1  0  0  0  0
  8  9  2  0  0  0  0
  8 10  1  0  0  0  0
  9 11  1  0  0  0  0
  9 30  1  0  0  0  0
 10 13  2  0  0  0  0
 10 31  1  0  0  0  0
 11 12  1  0  0  0  0
 11 14  2  0  0  0  0
 12 13  1  0  0  0  0
 12 15  2  0  0  0  0
 13 32  1  0  0  0  0
 14 16  1  0  0  0  0
 14 33  1  0  0  0  0
 15 17  1  0  0  0  0
 15 34  1  0  0  0  0
 16 17  2  0  0  0  0
 16 35  1  0  0  0  0
 17 36  1  0  0  0  0
M  END
> <PUBCHEM_COMPOUND_CID>
43298561

> <PUBCHEM_COMPOUND_CANONICALIZED>
1

> <PUBCHEM_CACTVS_COMPLEXITY>
234

> <PUBCHEM_CACTVS_HBOND_ACCEPTOR>
1

> <PUBCHEM_CACTVS_HBOND_DONOR>
1

> <PUBCHEM_CACTVS_ROTATABLE_BOND>
4

> <PUBCHEM_CACTVS_SUBSKEYS>
AAADceB6AAAAAAAAAAAAAAAAAABgAAAAAAAwYAAAAAAAAADBUAAAHAAQAAAADQDBGAQwAMLAAACAAiBCAACCAAAgAAAIiIAIBIgIICKAkRGEIAhgkACIiAcQgMAOwAACAAAQAACAAAQAACAAAAAAAAAAAA==

> <PUBCHEM_IUPAC_OPENEYE_NAME>
1-cyclobutyl-N-(2-naphthylmethyl)methanamine

> <PUBCHEM_IUPAC_CAS_NAME>
1-cyclobutyl-N-(2-naphthalenylmethyl)methanamine

> <PUBCHEM_IUPAC_NAME>
1-cyclobutyl-N-(naphthalen-2-ylmethyl)methanamine

> <PUBCHEM_IUPAC_SYSTEMATIC_NAME>
1-cyclobutyl-N-(naphthalen-2-ylmethyl)methanamine

> <PUBCHEM_IUPAC_TRADITIONAL_NAME>
cyclobutylmethyl(2-naphthylmethyl)amine

> <PUBCHEM_IUPAC_INCHI>
InChI=1S/C16H19N/c1-2-7-16-10-14(8-9-15(16)6-1)12-17-11-13-4-3-5-13/h1-2,6-10,13,17H,3-5,11-12H2

> <PUBCHEM_IUPAC_INCHIKEY>
IEIZAHBVAQSUQS-UHFFFAOYSA-N

> <PUBCHEM_XLOGP3>
3.8

> <PUBCHEM_EXACT_MASS>
225.15175

> <PUBCHEM_MOLECULAR_FORMULA>
C16H19N

> <PUBCHEM_MOLECULAR_WEIGHT>
225.32876

> <PUBCHEM_OPENEYE_CAN_SMILES>
C1CC(C1)CNCC2=CC3=CC=CC=C3C=C2

> <PUBCHEM_OPENEYE_ISO_SMILES>
C1CC(C1)CNCC2=CC3=CC=CC=C3C=C2

> <PUBCHEM_CACTVS_TPSA>
12

> <PUBCHEM_MONOISOTOPIC_WEIGHT>
225.15175

> <PUBCHEM_TOTAL_CHARGE>
0

> <PUBCHEM_HEAVY_ATOM_COUNT>
17

> <PUBCHEM_ATOM_DEF_STEREO_COUNT>
0

> <PUBCHEM_ATOM_UDEF_STEREO_COUNT>
0

> <PUBCHEM_BOND_DEF_STEREO_COUNT>
0

> <PUBCHEM_BOND_UDEF_STEREO_COUNT>
0

> <PUBCHEM_ISOTOPIC_ATOM_COUNT>
0

> <PUBCHEM_COMPONENT_COUNT>
1

> <PUBCHEM_CACTVS_TAUTO_COUNT>
1

> <PUBCHEM_COORDINATE_TYPE>
1
5
255

> <PUBCHEM_BONDANNOTATIONS>
10  13  8
11  12  8
11  14  8
12  13  8
12  15  8
14  16  8
15  17  8
16  17  8
8  10  8
8  9  8
9  11  8

$$$$
