17086629
  -OEChem-11301217212D

 46 48  0     1  0  0  0  0  0999 V2000
    4.5981   -1.0194    0.0000 O   0  0  0  0  0  0  0  0  0  0  0  0
    3.7320    1.4806    0.0000 N   0  0  0  0  0  0  0  0  0  0  0  0
    5.4641    0.4806    0.0000 N   0  0  0  0  0  0  0  0  0  0  0  0
    3.7320    0.4806    0.0000 C   0  0  3  0  0  0  0  0  0  0  0  0
    2.8660   -0.0194    0.0000 C   0  0  0  0  0  0  0  0  0  0  0  0
    4.5981   -0.0194    0.0000 C   0  0  0  0  0  0  0  0  0  0  0  0
    2.8660   -1.0194    0.0000 C   0  0  0  0  0  0  0  0  0  0  0  0
    6.3301   -0.0194    0.0000 C   0  0  0  0  0  0  0  0  0  0  0  0
    2.9230    2.0684    0.0000 C   0  0  0  0  0  0  0  0  0  0  0  0
    4.5411    2.0684    0.0000 C   0  0  0  0  0  0  0  0  0  0  0  0
    7.1962    0.4806    0.0000 C   0  0  0  0  0  0  0  0  0  0  0  0
    2.0000   -1.5194    0.0000 C   0  0  0  0  0  0  0  0  0  0  0  0
    3.7320   -1.5194    0.0000 C   0  0  0  0  0  0  0  0  0  0  0  0
    3.2320    3.0194    0.0000 C   0  0  0  0  0  0  0  0  0  0  0  0
    4.2320    3.0194    0.0000 C   0  0  0  0  0  0  0  0  0  0  0  0
    8.0622   -0.0194    0.0000 C   0  0  0  0  0  0  0  0  0  0  0  0
    2.0000   -2.5194    0.0000 C   0  0  0  0  0  0  0  0  0  0  0  0
    3.7320   -2.5194    0.0000 C   0  0  0  0  0  0  0  0  0  0  0  0
    8.0622   -1.0194    0.0000 C   0  0  0  0  0  0  0  0  0  0  0  0
    8.9282    0.4806    0.0000 C   0  0  0  0  0  0  0  0  0  0  0  0
    2.8660   -3.0194    0.0000 C   0  0  0  0  0  0  0  0  0  0  0  0
    8.9282   -1.5194    0.0000 C   0  0  0  0  0  0  0  0  0  0  0  0
    9.7942   -0.0194    0.0000 C   0  0  0  0  0  0  0  0  0  0  0  0
    9.7942   -1.0194    0.0000 C   0  0  0  0  0  0  0  0  0  0  0  0
    4.2690    0.7906    0.0000 H   0  0  0  0  0  0  0  0  0  0  0  0
    2.6540    0.5632    0.0000 H   0  0  0  0  0  0  0  0  0  0  0  0
    2.2554   -0.1271    0.0000 H   0  0  0  0  0  0  0  0  0  0  0  0
    5.9316   -0.4944    0.0000 H   0  0  0  0  0  0  0  0  0  0  0  0
    6.7287   -0.4944    0.0000 H   0  0  0  0  0  0  0  0  0  0  0  0
    5.4641    1.1006    0.0000 H   0  0  0  0  0  0  0  0  0  0  0  0
    5.1307    1.8768    0.0000 H   0  0  0  0  0  0  0  0  0  0  0  0
    2.3334    1.8768    0.0000 H   0  0  0  0  0  0  0  0  0  0  0  0
    7.5947    0.9555    0.0000 H   0  0  0  0  0  0  0  0  0  0  0  0
    6.7976    0.9555    0.0000 H   0  0  0  0  0  0  0  0  0  0  0  0
    1.4631   -1.2094    0.0000 H   0  0  0  0  0  0  0  0  0  0  0  0
    4.2690   -1.2094    0.0000 H   0  0  0  0  0  0  0  0  0  0  0  0
    4.5965    3.5210    0.0000 H   0  0  0  0  0  0  0  0  0  0  0  0
    2.8676    3.5210    0.0000 H   0  0  0  0  0  0  0  0  0  0  0  0
    1.4631   -2.8294    0.0000 H   0  0  0  0  0  0  0  0  0  0  0  0
    4.2690   -2.8294    0.0000 H   0  0  0  0  0  0  0  0  0  0  0  0
    7.5252   -1.3294    0.0000 H   0  0  0  0  0  0  0  0  0  0  0  0
    8.9282    1.1006    0.0000 H   0  0  0  0  0  0  0  0  0  0  0  0
    2.8660   -3.6394    0.0000 H   0  0  0  0  0  0  0  0  0  0  0  0
    8.9282   -2.1394    0.0000 H   0  0  0  0  0  0  0  0  0  0  0  0
   10.3312    0.2906    0.0000 H   0  0  0  0  0  0  0  0  0  0  0  0
   10.3312   -1.3294    0.0000 H   0  0  0  0  0  0  0  0  0  0  0  0
  1  6  2  0  0  0  0
  2  4  1  0  0  0  0
  2  9  1  0  0  0  0
  2 10  1  0  0  0  0
  3  6  1  0  0  0  0
  3  8  1  0  0  0  0
  3 30  1  0  0  0  0
  4  5  1  0  0  0  0
  4  6  1  0  0  0  0
  4 25  1  0  0  0  0
  5  7  1  0  0  0  0
  5 26  1  0  0  0  0
  5 27  1  0  0  0  0
  7 12  2  0  0  0  0
  7 13  1  0  0  0  0
  8 11  1  0  0  0  0
  8 28  1  0  0  0  0
  8 29  1  0  0  0  0
  9 14  2  0  0  0  0
  9 32  1  0  0  0  0
 10 15  2  0  0  0  0
 10 31  1  0  0  0  0
 11 16  1  0  0  0  0
 11 33  1  0  0  0  0
 11 34  1  0  0  0  0
 12 17  1  0  0  0  0
 12 35  1  0  0  0  0
 13 18  2  0  0  0  0
 13 36  1  0  0  0  0
 14 15  1  0  0  0  0
 14 38  1  0  0  0  0
 15 37  1  0  0  0  0
 16 19  2  0  0  0  0
 16 20  1  0  0  0  0
 17 21  2  0  0  0  0
 17 39  1  0  0  0  0
 18 21  1  0  0  0  0
 18 40  1  0  0  0  0
 19 22  1  0  0  0  0
 19 41  1  0  0  0  0
 20 23  2  0  0  0  0
 20 42  1  0  0  0  0
 21 43  1  0  0  0  0
 22 24  2  0  0  0  0
 22 44  1  0  0  0  0
 23 24  1  0  0  0  0
 23 45  1  0  0  0  0
 24 46  1  0  0  0  0
M  END
> <PUBCHEM_COMPOUND_CID>
17086629

> <PUBCHEM_COMPOUND_CANONICALIZED>
1

> <PUBCHEM_CACTVS_COMPLEXITY>
366

> <PUBCHEM_CACTVS_HBOND_ACCEPTOR>
1

> <PUBCHEM_CACTVS_HBOND_DONOR>
1

> <PUBCHEM_CACTVS_ROTATABLE_BOND>
7

> <PUBCHEM_CACTVS_SUBSKEYS>
AAADceB7IAAAAAAAAAAAAAAAAAAAAWAAAAAwYAAAAAAAAAAB0AAAHgAQAAAADCjBmgQ8gJPMEACoAjF3VACCgCAxAiAI2KG4ZJgIYPLAkbGUIAhglgDIyAcYiICOAAAAAAAAAAAAAAAAAAAAAAAAAAAAAA==

> <PUBCHEM_IUPAC_OPENEYE_NAME>
3-phenyl-N-(2-phenylethyl)-2-pyrrol-1-yl-propanamide

> <PUBCHEM_IUPAC_CAS_NAME>
3-phenyl-N-(2-phenylethyl)-2-(1-pyrrolyl)propanamide

> <PUBCHEM_IUPAC_NAME>
3-phenyl-N-(2-phenylethyl)-2-pyrrol-1-ylpropanamide

> <PUBCHEM_IUPAC_SYSTEMATIC_NAME>
3-phenyl-N-(2-phenylethyl)-2-pyrrol-1-yl-propanamide

> <PUBCHEM_IUPAC_TRADITIONAL_NAME>
N-phenethyl-3-phenyl-2-pyrrol-1-yl-propionamide

> <PUBCHEM_IUPAC_INCHI>
InChI=1S/C21H22N2O/c24-21(22-14-13-18-9-3-1-4-10-18)20(23-15-7-8-16-23)17-19-11-5-2-6-12-19/h1-12,15-16,20H,13-14,17H2,(H,22,24)

> <PUBCHEM_IUPAC_INCHIKEY>
IWAAZGNCICEKKZ-UHFFFAOYSA-N

> <PUBCHEM_XLOGP3>
4

> <PUBCHEM_EXACT_MASS>
318.173213

> <PUBCHEM_MOLECULAR_FORMULA>
C21H22N2O

> <PUBCHEM_MOLECULAR_WEIGHT>
318.41218

> <PUBCHEM_OPENEYE_CAN_SMILES>
C1=CC=C(C=C1)CCNC(=O)C(CC2=CC=CC=C2)N3C=CC=C3

> <PUBCHEM_OPENEYE_ISO_SMILES>
C1=CC=C(C=C1)CCNC(=O)C(CC2=CC=CC=C2)N3C=CC=C3

> <PUBCHEM_CACTVS_TPSA>
34

> <PUBCHEM_MONOISOTOPIC_WEIGHT>
318.173213

> <PUBCHEM_TOTAL_CHARGE>
0

> <PUBCHEM_HEAVY_ATOM_COUNT>
24

> <PUBCHEM_ATOM_DEF_STEREO_COUNT>
0

> <PUBCHEM_ATOM_UDEF_STEREO_COUNT>
1

> <PUBCHEM_BOND_DEF_STEREO_COUNT>
0

> <PUBCHEM_BOND_UDEF_STEREO_COUNT>
0

> <PUBCHEM_ISOTOPIC_ATOM_COUNT>
0

> <PUBCHEM_COMPONENT_COUNT>
1

> <PUBCHEM_CACTVS_TAUTO_COUNT>
2

> <PUBCHEM_COORDINATE_TYPE>
1
5
255

> <PUBCHEM_BONDANNOTATIONS>
10  15  8
12  17  8
13  18  8
14  15  8
16  19  8
16  20  8
17  21  8
18  21  8
19  22  8
2  10  8
2  9  8
20  23  8
22  24  8
23  24  8
4  5  3
7  12  8
7  13  8
9  14  8

$$$$
17087326
  -OEChem-11301217212D

 16 16  0     0  0  0  0  0  0999 V2000
    2.0000    0.7500    0.0000 Br  0  0  0  0  0  0  0  0  0  0  0  0
    5.4641    0.7500    0.0000 Cl  0  0  0  0  0  0  0  0  0  0  0  0
    3.7320   -2.2500    0.0000 Cl  0  0  0  0  0  0  0  0  0  0  0  0
    3.7320    1.7500    0.0000 O   0  0  0  0  0  0  0  0  0  0  0  0
    3.7320    0.7500    0.0000 C   0  0  0  0  0  0  0  0  0  0  0  0
    2.8660    0.2500    0.0000 C   0  0  0  0  0  0  0  0  0  0  0  0
    4.5981    0.2500    0.0000 C   0  0  0  0  0  0  0  0  0  0  0  0
    2.8660   -0.7500    0.0000 C   0  0  0  0  0  0  0  0  0  0  0  0
    4.5981   -0.7500    0.0000 C   0  0  0  0  0  0  0  0  0  0  0  0
    3.7320   -1.2500    0.0000 C   0  0  0  0  0  0  0  0  0  0  0  0
    4.5981    2.2500    0.0000 C   0  0  0  0  0  0  0  0  0  0  0  0
    2.3291   -1.0600    0.0000 H   0  0  0  0  0  0  0  0  0  0  0  0
    5.1350   -1.0600    0.0000 H   0  0  0  0  0  0  0  0  0  0  0  0
    4.9081    1.7131    0.0000 H   0  0  0  0  0  0  0  0  0  0  0  0
    5.1350    2.5600    0.0000 H   0  0  0  0  0  0  0  0  0  0  0  0
    4.2881    2.7869    0.0000 H   0  0  0  0  0  0  0  0  0  0  0  0
  1  6  1  0  0  0  0
  2  7  1  0  0  0  0
  3 10  1  0  0  0  0
  4  5  1  0  0  0  0
  4 11  1  0  0  0  0
  5  6  1  0  0  0  0
  5  7  2  0  0  0  0
  6  8  2  0  0  0  0
  7  9  1  0  0  0  0
  8 10  1  0  0  0  0
  8 12  1  0  0  0  0
  9 10  2  0  0  0  0
  9 13  1  0  0  0  0
 11 14  1  0  0  0  0
 11 15  1  0  0  0  0
 11 16  1  0  0  0  0
M  END
> <PUBCHEM_COMPOUND_CID>
17087326

> <PUBCHEM_COMPOUND_CANONICALIZED>
1

> <PUBCHEM_CACTVS_COMPLEXITY>
134

> <PUBCHEM_CACTVS_HBOND_ACCEPTOR>
1

> <PUBCHEM_CACTVS_HBOND_DONOR>
0

> <PUBCHEM_CACTVS_ROTATABLE_BOND>
1

> <PUBCHEM_CACTVS_SUBSKEYS>
AAADcYBgIAAGEAAAAAAAAAAAAAAAAAAAAAAwAAAAAAAAAAABAAAAGgJAAAABqAaAkCIyBoAABACAACBCAAACCAAgJUQAiAAEC6gMJiOFMxqAMCAkwBEIqheAQAAAACAAAADADAAAQAAAAYAYAAAAAAAAAA==

> <PUBCHEM_IUPAC_OPENEYE_NAME>
1-bromo-3,5-dichloro-2-methoxy-benzene

> <PUBCHEM_IUPAC_CAS_NAME>
1-bromo-3,5-dichloro-2-methoxybenzene

> <PUBCHEM_IUPAC_NAME>
1-bromo-3,5-dichloro-2-methoxybenzene

> <PUBCHEM_IUPAC_SYSTEMATIC_NAME>
1-bromanyl-3,5-bis(chloranyl)-2-methoxy-benzene

> <PUBCHEM_IUPAC_TRADITIONAL_NAME>
1-bromo-3,5-dichloro-2-methoxy-benzene

> <PUBCHEM_IUPAC_INCHI>
InChI=1S/C7H5BrCl2O/c1-11-7-5(8)2-4(9)3-6(7)10/h2-3H,1H3

> <PUBCHEM_IUPAC_INCHIKEY>
OEYKUHBCPJRXGZ-UHFFFAOYSA-N

> <PUBCHEM_XLOGP3>
4.1

> <PUBCHEM_EXACT_MASS>
253.890082

> <PUBCHEM_MOLECULAR_FORMULA>
C7H5BrCl2O

> <PUBCHEM_MOLECULAR_WEIGHT>
255.924

> <PUBCHEM_OPENEYE_CAN_SMILES>
COC1=C(C=C(C=C1Br)Cl)Cl

> <PUBCHEM_OPENEYE_ISO_SMILES>
COC1=C(C=C(C=C1Br)Cl)Cl

> <PUBCHEM_CACTVS_TPSA>
9.2

> <PUBCHEM_MONOISOTOPIC_WEIGHT>
253.890082

> <PUBCHEM_TOTAL_CHARGE>
0

> <PUBCHEM_HEAVY_ATOM_COUNT>
11

> <PUBCHEM_ATOM_DEF_STEREO_COUNT>
0

> <PUBCHEM_ATOM_UDEF_STEREO_COUNT>
0

> <PUBCHEM_BOND_DEF_STEREO_COUNT>
0

> <PUBCHEM_BOND_UDEF_STEREO_COUNT>
0

> <PUBCHEM_ISOTOPIC_ATOM_COUNT>
0

> <PUBCHEM_COMPONENT_COUNT>
1

> <PUBCHEM_CACTVS_TAUTO_COUNT>
1

> <PUBCHEM_COORDINATE_TYPE>
1
5
255

> <PUBCHEM_BONDANNOTATIONS>
5  6  8
5  7  8
6  8  8
7  9  8
8  10  8
9  10  8

$$$$
17088225
  -OEChem-11301217212D

 22 22  0     0  0  0  0  0  0999 V2000
    3.7320   -3.0000    0.0000 Cl  0  0  0  0  0  0  0  0  0  0  0  0
    5.4641    3.0000    0.0000 Cl  0  0  0  0  0  0  0  0  0  0  0  0
    5.4641    1.0000    0.0000 O   0  0  0  0  0  0  0  0  0  0  0  0
    3.7320    1.0000    0.0000 N   0  0  0  0  0  0  0  0  0  0  0  0
    3.7320    0.0000    0.0000 C   0  0  0  0  0  0  0  0  0  0  0  0
    2.8660   -1.5000    0.0000 C   0  0  0  0  0  0  0  0  0  0  0  0
    2.8660   -0.5000    0.0000 C   0  0  0  0  0  0  0  0  0  0  0  0
    4.5981   -0.5000    0.0000 C   0  0  0  0  0  0  0  0  0  0  0  0
    3.7320   -2.0000    0.0000 C   0  0  0  0  0  0  0  0  0  0  0  0
    4.5981   -1.5000    0.0000 C   0  0  0  0  0  0  0  0  0  0  0  0
    2.0000   -2.0000    0.0000 C   0  0  0  0  0  0  0  0  0  0  0  0
    4.5981    1.5000    0.0000 C   0  0  0  0  0  0  0  0  0  0  0  0
    4.5981    2.5000    0.0000 C   0  0  0  0  0  0  0  0  0  0  0  0
    2.3291   -0.1900    0.0000 H   0  0  0  0  0  0  0  0  0  0  0  0
    5.1350   -0.1900    0.0000 H   0  0  0  0  0  0  0  0  0  0  0  0
    5.1350   -1.8100    0.0000 H   0  0  0  0  0  0  0  0  0  0  0  0
    3.1951    1.3100    0.0000 H   0  0  0  0  0  0  0  0  0  0  0  0
    1.6900   -1.4631    0.0000 H   0  0  0  0  0  0  0  0  0  0  0  0
    1.4631   -2.3100    0.0000 H   0  0  0  0  0  0  0  0  0  0  0  0
    2.3100   -2.5369    0.0000 H   0  0  0  0  0  0  0  0  0  0  0  0
    4.3860    3.0826    0.0000 H   0  0  0  0  0  0  0  0  0  0  0  0
    3.9875    2.3923    0.0000 H   0  0  0  0  0  0  0  0  0  0  0  0
  1  9  1  0  0  0  0
  2 13  1  0  0  0  0
  3 12  2  0  0  0  0
  4  5  1  0  0  0  0
  4 12  1  0  0  0  0
  4 17  1  0  0  0  0
  5  7  2  0  0  0  0
  5  8  1  0  0  0  0
  6  7  1  0  0  0  0
  6  9  2  0  0  0  0
  6 11  1  0  0  0  0
  7 14  1  0  0  0  0
  8 10  2  0  0  0  0
  8 15  1  0  0  0  0
  9 10  1  0  0  0  0
 10 16  1  0  0  0  0
 11 18  1  0  0  0  0
 11 19  1  0  0  0  0
 11 20  1  0  0  0  0
 12 13  1  0  0  0  0
 13 21  1  0  0  0  0
 13 22  1  0  0  0  0
M  END
> <PUBCHEM_COMPOUND_CID>
17088225

> <PUBCHEM_COMPOUND_CANONICALIZED>
1

> <PUBCHEM_CACTVS_COMPLEXITY>
187

> <PUBCHEM_CACTVS_HBOND_ACCEPTOR>
1

> <PUBCHEM_CACTVS_HBOND_DONOR>
1

> <PUBCHEM_CACTVS_ROTATABLE_BOND>
2

> <PUBCHEM_CACTVS_SUBSKEYS>
AAADccByIAAGAAAAAAAAAAAAAAAAAAAAAAAwAAAAAAAAAAABAAAAHgIQAAAADAuBmGAywILAAACIAiVSUACCAAAhBwAIiAAAZohIICLBk5HEIAhglADIyAcQgAAOAABAQAABAAAAAICAAAIAAAAAAAAAAA==

> <PUBCHEM_IUPAC_OPENEYE_NAME>
2-chloro-N-(4-chloro-3-methyl-phenyl)acetamide

> <PUBCHEM_IUPAC_CAS_NAME>
2-chloro-N-(4-chloro-3-methylphenyl)acetamide

> <PUBCHEM_IUPAC_NAME>
2-chloro-N-(4-chloro-3-methylphenyl)acetamide

> <PUBCHEM_IUPAC_SYSTEMATIC_NAME>
2-chloranyl-N-(4-chloranyl-3-methyl-phenyl)ethanamide

> <PUBCHEM_IUPAC_TRADITIONAL_NAME>
2-chloro-N-(4-chloro-3-methyl-phenyl)acetamide

> <PUBCHEM_IUPAC_INCHI>
InChI=1S/C9H9Cl2NO/c1-6-4-7(2-3-8(6)11)12-9(13)5-10/h2-4H,5H2,1H3,(H,12,13)

> <PUBCHEM_IUPAC_INCHIKEY>
LKFPDBUGLNXOIP-UHFFFAOYSA-N

> <PUBCHEM_XLOGP3>
3.4

> <PUBCHEM_EXACT_MASS>
217.006119

> <PUBCHEM_MOLECULAR_FORMULA>
C9H9Cl2NO

> <PUBCHEM_MOLECULAR_WEIGHT>
218.07986

> <PUBCHEM_OPENEYE_CAN_SMILES>
CC1=C(C=CC(=C1)NC(=O)CCl)Cl

> <PUBCHEM_OPENEYE_ISO_SMILES>
CC1=C(C=CC(=C1)NC(=O)CCl)Cl

> <PUBCHEM_CACTVS_TPSA>
29.1

> <PUBCHEM_MONOISOTOPIC_WEIGHT>
217.006119

> <PUBCHEM_TOTAL_CHARGE>
0

> <PUBCHEM_HEAVY_ATOM_COUNT>
13

> <PUBCHEM_ATOM_DEF_STEREO_COUNT>
0

> <PUBCHEM_ATOM_UDEF_STEREO_COUNT>
0

> <PUBCHEM_BOND_DEF_STEREO_COUNT>
0

> <PUBCHEM_BOND_UDEF_STEREO_COUNT>
0

> <PUBCHEM_ISOTOPIC_ATOM_COUNT>
0

> <PUBCHEM_COMPONENT_COUNT>
1

> <PUBCHEM_CACTVS_TAUTO_COUNT>
3

> <PUBCHEM_COORDINATE_TYPE>
1
5
255

> <PUBCHEM_BONDANNOTATIONS>
5  7  8
5  8  8
6  7  8
6  9  8
8  10  8
9  10  8

$$$$
