54979709
  -OEChem-11301218062D

 39 41  0     0  0  0  0  0  0999 V2000
    4.3211    1.3036    0.0000 O   0  0  0  0  0  0  0  0  0  0  0  0
    5.9674    0.7655    0.0000 N   0  0  0  0  0  0  0  0  0  0  0  0
    4.6783   -2.0007    0.0000 N   0  0  0  0  0  0  0  0  0  0  0  0
    7.2566    1.9222    0.0000 C   0  0  0  0  0  0  0  0  0  0  0  0
    8.2071    1.6116    0.0000 C   0  0  0  0  0  0  0  0  0  0  0  0
    8.0009    2.5901    0.0000 C   0  0  0  0  0  0  0  0  0  0  0  0
    6.2781    1.7160    0.0000 C   0  0  0  0  0  0  0  0  0  0  0  0
    6.6353    0.0212    0.0000 C   0  0  0  0  0  0  0  0  0  0  0  0
    4.9889    0.5593    0.0000 C   0  0  0  0  0  0  0  0  0  0  0  0
    7.6138    0.2274    0.0000 C   0  0  0  0  0  0  0  0  0  0  0  0
    6.3246   -0.9294    0.0000 C   0  0  0  0  0  0  0  0  0  0  0  0
    4.6783   -0.3913    0.0000 C   0  0  0  0  0  0  0  0  0  0  0  0
    3.7320   -0.6960    0.0000 C   0  0  0  0  0  0  0  0  0  0  0  0
    5.2619   -1.1960    0.0000 C   0  0  0  0  0  0  0  0  0  0  0  0
    3.7320   -1.6960    0.0000 C   0  0  0  0  0  0  0  0  0  0  0  0
    2.8660   -0.1960    0.0000 C   0  0  0  0  0  0  0  0  0  0  0  0
    2.8660   -2.1960    0.0000 C   0  0  0  0  0  0  0  0  0  0  0  0
    2.0000   -0.6960    0.0000 C   0  0  0  0  0  0  0  0  0  0  0  0
    2.0000   -1.6960    0.0000 C   0  0  0  0  0  0  0  0  0  0  0  0
    6.9761    2.4751    0.0000 H   0  0  0  0  0  0  0  0  0  0  0  0
    8.1198    0.9977    0.0000 H   0  0  0  0  0  0  0  0  0  0  0  0
    8.8268    1.6321    0.0000 H   0  0  0  0  0  0  0  0  0  0  0  0
    8.5762    2.8213    0.0000 H   0  0  0  0  0  0  0  0  0  0  0  0
    7.6733    3.1164    0.0000 H   0  0  0  0  0  0  0  0  0  0  0  0
    6.2575    2.3356    0.0000 H   0  0  0  0  0  0  0  0  0  0  0  0
    5.6643    1.8033    0.0000 H   0  0  0  0  0  0  0  0  0  0  0  0
    6.8279    0.6105    0.0000 H   0  0  0  0  0  0  0  0  0  0  0  0
    7.7416   -0.3793    0.0000 H   0  0  0  0  0  0  0  0  0  0  0  0
    5.7353   -0.7367    0.0000 H   0  0  0  0  0  0  0  0  0  0  0  0
    6.1320   -1.5187    0.0000 H   0  0  0  0  0  0  0  0  0  0  0  0
    6.9139   -1.1220    0.0000 H   0  0  0  0  0  0  0  0  0  0  0  0
    8.2205    0.3552    0.0000 H   0  0  0  0  0  0  0  0  0  0  0  0
    7.4859    0.8341    0.0000 H   0  0  0  0  0  0  0  0  0  0  0  0
    5.8819   -1.1960    0.0000 H   0  0  0  0  0  0  0  0  0  0  0  0
    4.8709   -2.5901    0.0000 H   0  0  0  0  0  0  0  0  0  0  0  0
    2.8660    0.4240    0.0000 H   0  0  0  0  0  0  0  0  0  0  0  0
    2.8660   -2.8160    0.0000 H   0  0  0  0  0  0  0  0  0  0  0  0
    1.4631   -0.3860    0.0000 H   0  0  0  0  0  0  0  0  0  0  0  0
    1.4631   -2.0060    0.0000 H   0  0  0  0  0  0  0  0  0  0  0  0
  1  9  2  0  0  0  0
  2  7  1  0  0  0  0
  2  8  1  0  0  0  0
  2  9  1  0  0  0  0
  3 14  1  0  0  0  0
  3 15  1  0  0  0  0
  3 35  1  0  0  0  0
  4  5  1  0  0  0  0
  4  6  1  0  0  0  0
  4  7  1  0  0  0  0
  4 20  1  0  0  0  0
  5  6  1  0  0  0  0
  5 21  1  0  0  0  0
  5 22  1  0  0  0  0
  6 23  1  0  0  0  0
  6 24  1  0  0  0  0
  7 25  1  0  0  0  0
  7 26  1  0  0  0  0
  8 10  1  0  0  0  0
  8 11  1  0  0  0  0
  8 27  1  0  0  0  0
  9 12  1  0  0  0  0
 10 28  1  0  0  0  0
 10 32  1  0  0  0  0
 10 33  1  0  0  0  0
 11 29  1  0  0  0  0
 11 30  1  0  0  0  0
 11 31  1  0  0  0  0
 12 13  1  0  0  0  0
 12 14  2  0  0  0  0
 13 15  1  0  0  0  0
 13 16  2  0  0  0  0
 14 34  1  0  0  0  0
 15 17  2  0  0  0  0
 16 18  1  0  0  0  0
 16 36  1  0  0  0  0
 17 19  1  0  0  0  0
 17 37  1  0  0  0  0
 18 19  2  0  0  0  0
 18 38  1  0  0  0  0
 19 39  1  0  0  0  0
M  END
> <PUBCHEM_COMPOUND_CID>
54979709

> <PUBCHEM_COMPOUND_CANONICALIZED>
1

> <PUBCHEM_CACTVS_COMPLEXITY>
338

> <PUBCHEM_CACTVS_HBOND_ACCEPTOR>
1

> <PUBCHEM_CACTVS_HBOND_DONOR>
1

> <PUBCHEM_CACTVS_ROTATABLE_BOND>
4

> <PUBCHEM_CACTVS_SUBSKEYS>
AAADceB7IAAAAAAAAAAAAAAAGAAAAWAAAAAwAAAAAAAAAFgB8AAAHgAQAAAADSjBngQ+wPPJkACoAzV3VACCgCA1AiAI2aE4ZNgIIPrA1ZGEIYhglgDIyccciMCOgAAAAAACAAAAAAAAAAQAAAAAAAAAAA==

> <PUBCHEM_IUPAC_OPENEYE_NAME>
N-(cyclopropylmethyl)-N-isopropyl-1H-indole-3-carboxamide

> <PUBCHEM_IUPAC_CAS_NAME>
N-(cyclopropylmethyl)-N-propan-2-yl-1H-indole-3-carboxamide

> <PUBCHEM_IUPAC_NAME>
N-(cyclopropylmethyl)-N-propan-2-yl-1H-indole-3-carboxamide

> <PUBCHEM_IUPAC_SYSTEMATIC_NAME>
N-(cyclopropylmethyl)-N-propan-2-yl-1H-indole-3-carboxamide

> <PUBCHEM_IUPAC_TRADITIONAL_NAME>
N-(cyclopropylmethyl)-N-isopropyl-1H-indole-3-carboxamide

> <PUBCHEM_IUPAC_INCHI>
InChI=1S/C16H20N2O/c1-11(2)18(10-12-7-8-12)16(19)14-9-17-15-6-4-3-5-13(14)15/h3-6,9,11-12,17H,7-8,10H2,1-2H3

> <PUBCHEM_IUPAC_INCHIKEY>
FCKDJORDDUOWDF-UHFFFAOYSA-N

> <PUBCHEM_XLOGP3>
3.5

> <PUBCHEM_EXACT_MASS>
256.157563

> <PUBCHEM_MOLECULAR_FORMULA>
C16H20N2O

> <PUBCHEM_MOLECULAR_WEIGHT>
256.3428

> <PUBCHEM_OPENEYE_CAN_SMILES>
CC(C)N(CC1CC1)C(=O)C2=CNC3=CC=CC=C32

> <PUBCHEM_OPENEYE_ISO_SMILES>
CC(C)N(CC1CC1)C(=O)C2=CNC3=CC=CC=C32

> <PUBCHEM_CACTVS_TPSA>
36.1

> <PUBCHEM_MONOISOTOPIC_WEIGHT>
256.157563

> <PUBCHEM_TOTAL_CHARGE>
0

> <PUBCHEM_HEAVY_ATOM_COUNT>
19

> <PUBCHEM_ATOM_DEF_STEREO_COUNT>
0

> <PUBCHEM_ATOM_UDEF_STEREO_COUNT>
0

> <PUBCHEM_BOND_DEF_STEREO_COUNT>
0

> <PUBCHEM_BOND_UDEF_STEREO_COUNT>
0

> <PUBCHEM_ISOTOPIC_ATOM_COUNT>
0

> <PUBCHEM_COMPONENT_COUNT>
1

> <PUBCHEM_CACTVS_TAUTO_COUNT>
3

> <PUBCHEM_COORDINATE_TYPE>
1
5
255

> <PUBCHEM_BONDANNOTATIONS>
12  13  8
12  14  8
13  15  8
13  16  8
15  17  8
16  18  8
17  19  8
18  19  8
3  14  8
3  15  8

$$$$
54984173
  -OEChem-11301218072D

 36 37  0     0  0  0  0  0  0999 V2000
    8.0622    1.2500    0.0000 Br  0  0  0  0  0  0  0  0  0  0  0  0
    4.5981    0.2500    0.0000 N   0  0  0  0  0  0  0  0  0  0  0  0
    3.7320   -1.2500    0.0000 C   0  0  0  0  0  0  0  0  0  0  0  0
    3.7320   -0.2500    0.0000 C   0  0  0  0  0  0  0  0  0  0  0  0
    4.5981    1.2500    0.0000 C   0  0  0  0  0  0  0  0  0  0  0  0
    2.8660   -1.7500    0.0000 C   0  0  0  0  0  0  0  0  0  0  0  0
    4.5981   -1.7500    0.0000 C   0  0  0  0  0  0  0  0  0  0  0  0
    2.8660   -2.7500    0.0000 C   0  0  0  0  0  0  0  0  0  0  0  0
    4.5981   -2.7500    0.0000 C   0  0  0  0  0  0  0  0  0  0  0  0
    5.4641    1.7500    0.0000 C   0  0  0  0  0  0  0  0  0  0  0  0
    3.7320   -3.2500    0.0000 C   0  0  0  0  0  0  0  0  0  0  0  0
    2.0000   -3.2500    0.0000 C   0  0  0  0  0  0  0  0  0  0  0  0
    5.4641   -3.2500    0.0000 C   0  0  0  0  0  0  0  0  0  0  0  0
    6.3301    1.2500    0.0000 C   0  0  0  0  0  0  0  0  0  0  0  0
    5.4641    2.7500    0.0000 C   0  0  0  0  0  0  0  0  0  0  0  0
    7.1962    1.7500    0.0000 C   0  0  0  0  0  0  0  0  0  0  0  0
    6.3301    3.2500    0.0000 C   0  0  0  0  0  0  0  0  0  0  0  0
    7.1962    2.7500    0.0000 C   0  0  0  0  0  0  0  0  0  0  0  0
    3.5200    0.3326    0.0000 H   0  0  0  0  0  0  0  0  0  0  0  0
    3.1215   -0.3577    0.0000 H   0  0  0  0  0  0  0  0  0  0  0  0
    4.3860    1.8326    0.0000 H   0  0  0  0  0  0  0  0  0  0  0  0
    3.9875    1.1423    0.0000 H   0  0  0  0  0  0  0  0  0  0  0  0
    5.1350   -0.0600    0.0000 H   0  0  0  0  0  0  0  0  0  0  0  0
    2.3291   -1.4400    0.0000 H   0  0  0  0  0  0  0  0  0  0  0  0
    5.1350   -1.4400    0.0000 H   0  0  0  0  0  0  0  0  0  0  0  0
    3.7320   -3.8700    0.0000 H   0  0  0  0  0  0  0  0  0  0  0  0
    1.6900   -2.7131    0.0000 H   0  0  0  0  0  0  0  0  0  0  0  0
    1.4631   -3.5600    0.0000 H   0  0  0  0  0  0  0  0  0  0  0  0
    2.3100   -3.7869    0.0000 H   0  0  0  0  0  0  0  0  0  0  0  0
    5.1541   -3.7869    0.0000 H   0  0  0  0  0  0  0  0  0  0  0  0
    6.0010   -3.5600    0.0000 H   0  0  0  0  0  0  0  0  0  0  0  0
    5.7741   -2.7131    0.0000 H   0  0  0  0  0  0  0  0  0  0  0  0
    6.3301    0.6300    0.0000 H   0  0  0  0  0  0  0  0  0  0  0  0
    4.9272    3.0600    0.0000 H   0  0  0  0  0  0  0  0  0  0  0  0
    6.3301    3.8700    0.0000 H   0  0  0  0  0  0  0  0  0  0  0  0
    7.7331    3.0600    0.0000 H   0  0  0  0  0  0  0  0  0  0  0  0
  1 16  1  0  0  0  0
  2  4  1  0  0  0  0
  2  5  1  0  0  0  0
  2 23  1  0  0  0  0
  3  4  1  0  0  0  0
  3  6  2  0  0  0  0
  3  7  1  0  0  0  0
  4 19  1  0  0  0  0
  4 20  1  0  0  0  0
  5 10  1  0  0  0  0
  5 21  1  0  0  0  0
  5 22  1  0  0  0  0
  6  8  1  0  0  0  0
  6 24  1  0  0  0  0
  7  9  2  0  0  0  0
  7 25  1  0  0  0  0
  8 11  2  0  0  0  0
  8 12  1  0  0  0  0
  9 11  1  0  0  0  0
  9 13  1  0  0  0  0
 10 14  2  0  0  0  0
 10 15  1  0  0  0  0
 11 26  1  0  0  0  0
 12 27  1  0  0  0  0
 12 28  1  0  0  0  0
 12 29  1  0  0  0  0
 13 30  1  0  0  0  0
 13 31  1  0  0  0  0
 13 32  1  0  0  0  0
 14 16  1  0  0  0  0
 14 33  1  0  0  0  0
 15 17  2  0  0  0  0
 15 34  1  0  0  0  0
 16 18  2  0  0  0  0
 17 18  1  0  0  0  0
 17 35  1  0  0  0  0
 18 36  1  0  0  0  0
M  END
> <PUBCHEM_COMPOUND_CID>
54984173

> <PUBCHEM_COMPOUND_CANONICALIZED>
1

> <PUBCHEM_CACTVS_COMPLEXITY>
233

> <PUBCHEM_CACTVS_HBOND_ACCEPTOR>
1

> <PUBCHEM_CACTVS_HBOND_DONOR>
1

> <PUBCHEM_CACTVS_ROTATABLE_BOND>
4

> <PUBCHEM_CACTVS_SUBSKEYS>
AAADceB6AAAAEAAAAAAAAAAAAAAAAAAAAAAwYAAAAAAAAAABQAAAHABQAAABrADBGAQyAILAAACAAiBCAACCAAAgAAQIiIAIBKgIICKAkRGEIAhggACIihcQgEAOAAACEAAAAAAAAAQgAAAAAAAAAAAAAA==

> <PUBCHEM_IUPAC_OPENEYE_NAME>
1-(3-bromophenyl)-N-[(3,5-dimethylphenyl)methyl]methanamine

> <PUBCHEM_IUPAC_CAS_NAME>
1-(3-bromophenyl)-N-[(3,5-dimethylphenyl)methyl]methanamine

> <PUBCHEM_IUPAC_NAME>
1-(3-bromophenyl)-N-[(3,5-dimethylphenyl)methyl]methanamine

> <PUBCHEM_IUPAC_SYSTEMATIC_NAME>
1-(3-bromophenyl)-N-[(3,5-dimethylphenyl)methyl]methanamine

> <PUBCHEM_IUPAC_TRADITIONAL_NAME>
(3-bromobenzyl)-(3,5-dimethylbenzyl)amine

> <PUBCHEM_IUPAC_INCHI>
InChI=1S/C16H18BrN/c1-12-6-13(2)8-15(7-12)11-18-10-14-4-3-5-16(17)9-14/h3-9,18H,10-11H2,1-2H3

> <PUBCHEM_IUPAC_INCHIKEY>
XUYSYMCPKDKBLK-UHFFFAOYSA-N

> <PUBCHEM_XLOGP3>
4.5

> <PUBCHEM_EXACT_MASS>
303.062262

> <PUBCHEM_MOLECULAR_FORMULA>
C16H18BrN

> <PUBCHEM_MOLECULAR_WEIGHT>
304.22482

> <PUBCHEM_OPENEYE_CAN_SMILES>
CC1=CC(=CC(=C1)CNCC2=CC(=CC=C2)Br)C

> <PUBCHEM_OPENEYE_ISO_SMILES>
CC1=CC(=CC(=C1)CNCC2=CC(=CC=C2)Br)C

> <PUBCHEM_CACTVS_TPSA>
12

> <PUBCHEM_MONOISOTOPIC_WEIGHT>
303.062262

> <PUBCHEM_TOTAL_CHARGE>
0

> <PUBCHEM_HEAVY_ATOM_COUNT>
18

> <PUBCHEM_ATOM_DEF_STEREO_COUNT>
0

> <PUBCHEM_ATOM_UDEF_STEREO_COUNT>
0

> <PUBCHEM_BOND_DEF_STEREO_COUNT>
0

> <PUBCHEM_BOND_UDEF_STEREO_COUNT>
0

> <PUBCHEM_ISOTOPIC_ATOM_COUNT>
0

> <PUBCHEM_COMPONENT_COUNT>
1

> <PUBCHEM_CACTVS_TAUTO_COUNT>
1

> <PUBCHEM_COORDINATE_TYPE>
1
5
255

> <PUBCHEM_BONDANNOTATIONS>
10  14  8
10  15  8
14  16  8
15  17  8
16  18  8
17  18  8
3  6  8
3  7  8
6  8  8
7  9  8
8  11  8
9  11  8

$$$$
54995772
  -OEChem-11301218072D

 30 31  0     0  0  0  0  0  0999 V2000
    2.0000   -1.5173    0.0000 Cl  0  0  0  0  0  0  0  0  0  0  0  0
   10.7263    1.5068    0.0000 O   0  0  0  0  0  0  0  0  0  0  0  0
    8.0622   -0.0173    0.0000 C   0  0  0  0  0  0  0  0  0  0  0  0
    8.0622    0.9827    0.0000 C   0  0  0  0  0  0  0  0  0  0  0  0
    7.1962   -0.5173    0.0000 C   0  0  0  0  0  0  0  0  0  0  0  0
    8.9561    1.5173    0.0000 C   0  0  0  0  0  0  0  0  0  0  0  0
    8.9561   -0.5520    0.0000 C   0  0  0  0  0  0  0  0  0  0  0  0
    7.1962    1.4827    0.0000 C   0  0  0  0  0  0  0  0  0  0  0  0
    6.3301   -0.0173    0.0000 C   0  0  0  0  0  0  0  0  0  0  0  0
    9.8622    1.0035    0.0000 C   0  0  0  0  0  0  0  0  0  0  0  0
    9.8622   -0.0381    0.0000 C   0  0  0  0  0  0  0  0  0  0  0  0
    6.3301    0.9827    0.0000 C   0  0  0  0  0  0  0  0  0  0  0  0
    5.4641   -0.5173    0.0000 C   0  0  0  0  0  0  0  0  0  0  0  0
    3.7320   -1.5173    0.0000 C   0  0  0  0  0  0  0  0  0  0  0  0
   11.5942    1.0102    0.0000 C   0  0  0  0  0  0  0  0  0  0  0  0
    4.5981   -1.0173    0.0000 C   0  0  0  0  0  0  0  0  0  0  0  0
    2.8660   -1.0173    0.0000 C   0  0  0  0  0  0  0  0  0  0  0  0
    7.1962   -1.1373    0.0000 H   0  0  0  0  0  0  0  0  0  0  0  0
    8.9490    2.1373    0.0000 H   0  0  0  0  0  0  0  0  0  0  0  0
    8.9490   -1.1720    0.0000 H   0  0  0  0  0  0  0  0  0  0  0  0
    7.1962    2.1027    0.0000 H   0  0  0  0  0  0  0  0  0  0  0  0
   10.3979   -0.3502    0.0000 H   0  0  0  0  0  0  0  0  0  0  0  0
    5.7932    1.2927    0.0000 H   0  0  0  0  0  0  0  0  0  0  0  0
    3.3335   -1.9923    0.0000 H   0  0  0  0  0  0  0  0  0  0  0  0
    4.1306   -1.9923    0.0000 H   0  0  0  0  0  0  0  0  0  0  0  0
   11.2863    0.4720    0.0000 H   0  0  0  0  0  0  0  0  0  0  0  0
   12.1324    0.7022    0.0000 H   0  0  0  0  0  0  0  0  0  0  0  0
   11.9022    1.5483    0.0000 H   0  0  0  0  0  0  0  0  0  0  0  0
    3.2646   -0.5424    0.0000 H   0  0  0  0  0  0  0  0  0  0  0  0
    2.4675   -0.5424    0.0000 H   0  0  0  0  0  0  0  0  0  0  0  0
  1 17  1  0  0  0  0
  2 10  1  0  0  0  0
  2 15  1  0  0  0  0
  3  4  2  0  0  0  0
  3  5  1  0  0  0  0
  3  7  1  0  0  0  0
  4  6  1  0  0  0  0
  4  8  1  0  0  0  0
  5  9  2  0  0  0  0
  5 18  1  0  0  0  0
  6 10  2  0  0  0  0
  6 19  1  0  0  0  0
  7 11  2  0  0  0  0
  7 20  1  0  0  0  0
  8 12  2  0  0  0  0
  8 21  1  0  0  0  0
  9 12  1  0  0  0  0
  9 13  1  0  0  0  0
 10 11  1  0  0  0  0
 11 22  1  0  0  0  0
 12 23  1  0  0  0  0
 13 16  3  0  0  0  0
 14 16  1  0  0  0  0
 14 17  1  0  0  0  0
 14 24  1  0  0  0  0
 14 25  1  0  0  0  0
 15 26  1  0  0  0  0
 15 27  1  0  0  0  0
 15 28  1  0  0  0  0
 17 29  1  0  0  0  0
 17 30  1  0  0  0  0
M  END
> <PUBCHEM_COMPOUND_CID>
54995772

> <PUBCHEM_COMPOUND_CANONICALIZED>
1

> <PUBCHEM_CACTVS_COMPLEXITY>
301

> <PUBCHEM_CACTVS_HBOND_ACCEPTOR>
1

> <PUBCHEM_CACTVS_HBOND_DONOR>
0

> <PUBCHEM_CACTVS_ROTATABLE_BOND>
3

> <PUBCHEM_CACTVS_SUBSKEYS>
AAADccBwIAAEAAAAAAAAAAAAAAAAAAAAAAAwYAAAAAAAAADBUAAAGgIAAAAADAeAmEIyBsAABADAEiBCAAgCCAAgIAAIiAAGCogMJiKEMRqAMCAkwBEIqAeAwPAO4AADAAAQAADAAAYAACAAAAAAAAAAAA==

> <PUBCHEM_IUPAC_OPENEYE_NAME>
2-(4-chlorobut-1-ynyl)-6-methoxy-naphthalene

> <PUBCHEM_IUPAC_CAS_NAME>
2-(4-chlorobut-1-ynyl)-6-methoxynaphthalene

> <PUBCHEM_IUPAC_NAME>
2-(4-chlorobut-1-ynyl)-6-methoxynaphthalene

> <PUBCHEM_IUPAC_SYSTEMATIC_NAME>
2-(4-chloranylbut-1-ynyl)-6-methoxy-naphthalene

> <PUBCHEM_IUPAC_TRADITIONAL_NAME>
2-(4-chlorobut-1-ynyl)-6-methoxy-naphthalene

> <PUBCHEM_IUPAC_INCHI>
InChI=1S/C15H13ClO/c1-17-15-8-7-13-10-12(4-2-3-9-16)5-6-14(13)11-15/h5-8,10-11H,3,9H2,1H3

> <PUBCHEM_IUPAC_INCHIKEY>
GXDVJRCJOHPOLJ-UHFFFAOYSA-N

> <PUBCHEM_XLOGP3>
4.4

> <PUBCHEM_EXACT_MASS>
244.065493

> <PUBCHEM_MOLECULAR_FORMULA>
C15H13ClO

> <PUBCHEM_MOLECULAR_WEIGHT>
244.71612

> <PUBCHEM_OPENEYE_CAN_SMILES>
COC1=CC2=C(C=C1)C=C(C=C2)C#CCCCl

> <PUBCHEM_OPENEYE_ISO_SMILES>
COC1=CC2=C(C=C1)C=C(C=C2)C#CCCCl

> <PUBCHEM_CACTVS_TPSA>
9.2

> <PUBCHEM_MONOISOTOPIC_WEIGHT>
244.065493

> <PUBCHEM_TOTAL_CHARGE>
0

> <PUBCHEM_HEAVY_ATOM_COUNT>
17

> <PUBCHEM_ATOM_DEF_STEREO_COUNT>
0

> <PUBCHEM_ATOM_UDEF_STEREO_COUNT>
0

> <PUBCHEM_BOND_DEF_STEREO_COUNT>
0

> <PUBCHEM_BOND_UDEF_STEREO_COUNT>
0

> <PUBCHEM_ISOTOPIC_ATOM_COUNT>
0

> <PUBCHEM_COMPONENT_COUNT>
1

> <PUBCHEM_CACTVS_TAUTO_COUNT>
1

> <PUBCHEM_COORDINATE_TYPE>
1
5
255

> <PUBCHEM_BONDANNOTATIONS>
10  11  8
3  4  8
3  5  8
3  7  8
4  6  8
4  8  8
5  9  8
6  10  8
7  11  8
8  12  8
9  12  8

$$$$
54995971
  -OEChem-11301218072D

 33 34  0     0  0  0  0  0  0999 V2000
   11.5904    1.0361    0.0000 Cl  0  0  0  0  0  0  0  0  0  0  0  0
    3.7320   -1.4981    0.0000 O   0  0  0  0  0  0  0  0  0  0  0  0
    6.3301   -0.9981    0.0000 C   0  0  0  0  0  0  0  0  0  0  0  0
    6.3301    0.0019    0.0000 C   0  0  0  0  0  0  0  0  0  0  0  0
    2.8660   -0.9981    0.0000 C   0  0  0  0  0  0  0  0  0  0  0  0
    4.5981   -0.9981    0.0000 C   0  0  0  0  0  0  0  0  0  0  0  0
    5.4641   -1.4981    0.0000 C   0  0  0  0  0  0  0  0  0  0  0  0
    5.4641    0.5019    0.0000 C   0  0  0  0  0  0  0  0  0  0  0  0
    4.5981    0.0019    0.0000 C   0  0  0  0  0  0  0  0  0  0  0  0
    7.2241    0.5366    0.0000 C   0  0  0  0  0  0  0  0  0  0  0  0
    7.2241   -1.5327    0.0000 C   0  0  0  0  0  0  0  0  0  0  0  0
    2.0000   -1.4981    0.0000 C   0  0  0  0  0  0  0  0  0  0  0  0
    2.8660    0.0019    0.0000 C   0  0  0  0  0  0  0  0  0  0  0  0
    8.1301    0.0227    0.0000 C   0  0  0  0  0  0  0  0  0  0  0  0
    8.1301   -1.0189    0.0000 C   0  0  0  0  0  0  0  0  0  0  0  0
    8.9942    0.5261    0.0000 C   0  0  0  0  0  0  0  0  0  0  0  0
    9.8583    1.0294    0.0000 C   0  0  0  0  0  0  0  0  0  0  0  0
   10.7224    1.5327    0.0000 C   0  0  0  0  0  0  0  0  0  0  0  0
    3.4030   -0.6881    0.0000 H   0  0  0  0  0  0  0  0  0  0  0  0
    5.4641   -2.1181    0.0000 H   0  0  0  0  0  0  0  0  0  0  0  0
    5.4641    1.1219    0.0000 H   0  0  0  0  0  0  0  0  0  0  0  0
    4.0611    0.3119    0.0000 H   0  0  0  0  0  0  0  0  0  0  0  0
    7.2169    1.1565    0.0000 H   0  0  0  0  0  0  0  0  0  0  0  0
    7.2169   -2.1527    0.0000 H   0  0  0  0  0  0  0  0  0  0  0  0
    3.4860    0.0019    0.0000 H   0  0  0  0  0  0  0  0  0  0  0  0
    2.8660    0.6219    0.0000 H   0  0  0  0  0  0  0  0  0  0  0  0
    1.6900   -0.9611    0.0000 H   0  0  0  0  0  0  0  0  0  0  0  0
    1.4631   -1.8081    0.0000 H   0  0  0  0  0  0  0  0  0  0  0  0
    2.3100   -2.0350    0.0000 H   0  0  0  0  0  0  0  0  0  0  0  0
    2.2460    0.0019    0.0000 H   0  0  0  0  0  0  0  0  0  0  0  0
    8.6659   -1.3310    0.0000 H   0  0  0  0  0  0  0  0  0  0  0  0
   11.1191    2.0092    0.0000 H   0  0  0  0  0  0  0  0  0  0  0  0
   10.3221    2.0062    0.0000 H   0  0  0  0  0  0  0  0  0  0  0  0
  1 18  1  0  0  0  0
  2  5  1  0  0  0  0
  2  6  1  0  0  0  0
  3  4  2  0  0  0  0
  3  7  1  0  0  0  0
  3 11  1  0  0  0  0
  4  8  1  0  0  0  0
  4 10  1  0  0  0  0
  5 12  1  0  0  0  0
  5 13  1  0  0  0  0
  5 19  1  0  0  0  0
  6  7  2  0  0  0  0
  6  9  1  0  0  0  0
  7 20  1  0  0  0  0
  8  9  2  0  0  0  0
  8 21  1  0  0  0  0
  9 22  1  0  0  0  0
 10 14  2  0  0  0  0
 10 23  1  0  0  0  0
 11 15  2  0  0  0  0
 11 24  1  0  0  0  0
 12 27  1  0  0  0  0
 12 28  1  0  0  0  0
 12 29  1  0  0  0  0
 13 25  1  0  0  0  0
 13 26  1  0  0  0  0
 13 30  1  0  0  0  0
 14 15  1  0  0  0  0
 14 16  1  0  0  0  0
 15 31  1  0  0  0  0
 16 17  3  0  0  0  0
 17 18  1  0  0  0  0
 18 32  1  0  0  0  0
 18 33  1  0  0  0  0
M  END
> <PUBCHEM_COMPOUND_CID>
54995971

> <PUBCHEM_COMPOUND_CANONICALIZED>
1

> <PUBCHEM_CACTVS_COMPLEXITY>
325

> <PUBCHEM_CACTVS_HBOND_ACCEPTOR>
1

> <PUBCHEM_CACTVS_HBOND_DONOR>
0

> <PUBCHEM_CACTVS_ROTATABLE_BOND>
3

> <PUBCHEM_CACTVS_SUBSKEYS>
AAADccB4IAAEAAAAAAAAAAAAAAAAAAAAAAAwYAAAAAAAAADBUAAAGgIAAAAADBegmEIyBsAABADAEiBCAAgCCAAgIAAIiAAGCIgMJiKEMRqCOCCkwBEIqAeAwPAO4AADAAAQAADAAAYAACAAAAAAAAAAAA==

> <PUBCHEM_IUPAC_OPENEYE_NAME>
2-(3-chloroprop-1-ynyl)-6-isopropoxy-naphthalene

> <PUBCHEM_IUPAC_CAS_NAME>
2-(3-chloroprop-1-ynyl)-6-propan-2-yloxynaphthalene

> <PUBCHEM_IUPAC_NAME>
2-(3-chloroprop-1-ynyl)-6-propan-2-yloxynaphthalene

> <PUBCHEM_IUPAC_SYSTEMATIC_NAME>
2-(3-chloranylprop-1-ynyl)-6-propan-2-yloxy-naphthalene

> <PUBCHEM_IUPAC_TRADITIONAL_NAME>
2-(3-chloroprop-1-ynyl)-6-isopropoxy-naphthalene

> <PUBCHEM_IUPAC_INCHI>
InChI=1S/C16H15ClO/c1-12(2)18-16-8-7-14-10-13(4-3-9-17)5-6-15(14)11-16/h5-8,10-12H,9H2,1-2H3

> <PUBCHEM_IUPAC_INCHIKEY>
LODTYWFNYJOQCR-UHFFFAOYSA-N

> <PUBCHEM_XLOGP3>
4.7

> <PUBCHEM_EXACT_MASS>
258.081143

> <PUBCHEM_MOLECULAR_FORMULA>
C16H15ClO

> <PUBCHEM_MOLECULAR_WEIGHT>
258.7427

> <PUBCHEM_OPENEYE_CAN_SMILES>
CC(C)OC1=CC2=C(C=C1)C=C(C=C2)C#CCCl

> <PUBCHEM_OPENEYE_ISO_SMILES>
CC(C)OC1=CC2=C(C=C1)C=C(C=C2)C#CCCl

> <PUBCHEM_CACTVS_TPSA>
9.2

> <PUBCHEM_MONOISOTOPIC_WEIGHT>
258.081143

> <PUBCHEM_TOTAL_CHARGE>
0

> <PUBCHEM_HEAVY_ATOM_COUNT>
18

> <PUBCHEM_ATOM_DEF_STEREO_COUNT>
0

> <PUBCHEM_ATOM_UDEF_STEREO_COUNT>
0

> <PUBCHEM_BOND_DEF_STEREO_COUNT>
0

> <PUBCHEM_BOND_UDEF_STEREO_COUNT>
0

> <PUBCHEM_ISOTOPIC_ATOM_COUNT>
0

> <PUBCHEM_COMPONENT_COUNT>
1

> <PUBCHEM_CACTVS_TAUTO_COUNT>
1

> <PUBCHEM_COORDINATE_TYPE>
1
5
255

> <PUBCHEM_BONDANNOTATIONS>
10  14  8
11  15  8
14  15  8
3  11  8
3  4  8
3  7  8
4  10  8
4  8  8
6  7  8
6  9  8
8  9  8

$$$$
