38279588
  -OEChem-12041211532D

 45 45  0     0  0  0  0  0  0999 V2000
    4.5981   -1.0000    0.0000 O   0  0  0  0  0  0  0  0  0  0  0  0
    4.5981    3.0000    0.0000 N   0  3  0  0  0  0  0  0  0  0  0  0
    3.7321    0.5000    0.0000 N   0  0  0  0  0  0  0  0  0  0  0  0
    2.8660   -1.0000    0.0000 N   0  0  0  0  0  0  0  0  0  0  0  0
    4.5981    2.0000    0.0000 C   0  0  0  0  0  0  0  0  0  0  0  0
    5.5981    2.0000    0.0000 C   0  0  0  0  0  0  0  0  0  0  0  0
    3.5981    2.0000    0.0000 C   0  0  0  0  0  0  0  0  0  0  0  0
    4.5981    1.0000    0.0000 C   0  0  0  0  0  0  0  0  0  0  0  0
    4.5981    4.0000    0.0000 C   0  0  0  0  0  0  0  0  0  0  0  0
    5.5981    3.0000    0.0000 C   0  0  0  0  0  0  0  0  0  0  0  0
    6.0981    1.1340    0.0000 C   0  0  0  0  0  0  0  0  0  0  0  0
    3.0981    2.8660    0.0000 C   0  0  0  0  0  0  0  0  0  0  0  0
    3.7321   -0.5000    0.0000 C   0  0  0  0  0  0  0  0  0  0  0  0
    2.8660   -2.0000    0.0000 C   0  0  0  0  0  0  0  0  0  0  0  0
    3.7321   -2.5000    0.0000 C   0  0  0  0  0  0  0  0  0  0  0  0
    2.0000   -2.5000    0.0000 C   0  0  0  0  0  0  0  0  0  0  0  0
    3.7321   -3.5000    0.0000 C   0  0  0  0  0  0  0  0  0  0  0  0
    2.0000   -3.5000    0.0000 C   0  0  0  0  0  0  0  0  0  0  0  0
    2.8660   -4.0000    0.0000 C   0  0  0  0  0  0  0  0  0  0  0  0
    3.9781    3.0000    0.0000 H   0  0  0  0  0  0  0  0  0  0  0  0
    6.1807    2.2121    0.0000 H   0  0  0  0  0  0  0  0  0  0  0  0
    5.4904    2.6106    0.0000 H   0  0  0  0  0  0  0  0  0  0  0  0
    3.0155    1.7880    0.0000 H   0  0  0  0  0  0  0  0  0  0  0  0
    3.7057    1.3894    0.0000 H   0  0  0  0  0  0  0  0  0  0  0  0
    4.8101    0.4174    0.0000 H   0  0  0  0  0  0  0  0  0  0  0  0
    5.2087    1.1077    0.0000 H   0  0  0  0  0  0  0  0  0  0  0  0
    5.2181    4.0000    0.0000 H   0  0  0  0  0  0  0  0  0  0  0  0
    4.5981    4.6200    0.0000 H   0  0  0  0  0  0  0  0  0  0  0  0
    3.9781    4.0000    0.0000 H   0  0  0  0  0  0  0  0  0  0  0  0
    5.5981    2.3800    0.0000 H   0  0  0  0  0  0  0  0  0  0  0  0
    6.2181    3.0000    0.0000 H   0  0  0  0  0  0  0  0  0  0  0  0
    5.5981    3.6200    0.0000 H   0  0  0  0  0  0  0  0  0  0  0  0
    5.5611    0.8240    0.0000 H   0  0  0  0  0  0  0  0  0  0  0  0
    6.4081    0.5970    0.0000 H   0  0  0  0  0  0  0  0  0  0  0  0
    6.6350    1.4440    0.0000 H   0  0  0  0  0  0  0  0  0  0  0  0
    3.6350    3.1760    0.0000 H   0  0  0  0  0  0  0  0  0  0  0  0
    2.7881    3.4030    0.0000 H   0  0  0  0  0  0  0  0  0  0  0  0
    2.5611    2.5560    0.0000 H   0  0  0  0  0  0  0  0  0  0  0  0
    3.1951    0.8100    0.0000 H   0  0  0  0  0  0  0  0  0  0  0  0
    2.3291   -0.6900    0.0000 H   0  0  0  0  0  0  0  0  0  0  0  0
    4.2690   -2.1900    0.0000 H   0  0  0  0  0  0  0  0  0  0  0  0
    1.4631   -2.1900    0.0000 H   0  0  0  0  0  0  0  0  0  0  0  0
    4.2690   -3.8100    0.0000 H   0  0  0  0  0  0  0  0  0  0  0  0
    1.4631   -3.8100    0.0000 H   0  0  0  0  0  0  0  0  0  0  0  0
    2.8660   -4.6200    0.0000 H   0  0  0  0  0  0  0  0  0  0  0  0
  1 13  2  0  0  0  0
  2  5  1  0  0  0  0
  2  9  1  0  0  0  0
  2 10  1  0  0  0  0
  2 20  1  0  0  0  0
  3  8  1  0  0  0  0
  3 13  1  0  0  0  0
  3 39  1  0  0  0  0
  4 13  1  0  0  0  0
  4 14  1  0  0  0  0
  4 40  1  0  0  0  0
  5  6  1  0  0  0  0
  5  7  1  0  0  0  0
  5  8  1  0  0  0  0
  6 11  1  0  0  0  0
  6 21  1  0  0  0  0
  6 22  1  0  0  0  0
  7 12  1  0  0  0  0
  7 23  1  0  0  0  0
  7 24  1  0  0  0  0
  8 25  1  0  0  0  0
  8 26  1  0  0  0  0
  9 27  1  0  0  0  0
  9 28  1  0  0  0  0
  9 29  1  0  0  0  0
 10 30  1  0  0  0  0
 10 31  1  0  0  0  0
 10 32  1  0  0  0  0
 11 33  1  0  0  0  0
 11 34  1  0  0  0  0
 11 35  1  0  0  0  0
 12 36  1  0  0  0  0
 12 37  1  0  0  0  0
 12 38  1  0  0  0  0
 14 15  2  0  0  0  0
 14 16  1  0  0  0  0
 15 17  1  0  0  0  0
 15 41  1  0  0  0  0
 16 18  2  0  0  0  0
 16 42  1  0  0  0  0
 17 19  2  0  0  0  0
 17 43  1  0  0  0  0
 18 19  1  0  0  0  0
 18 44  1  0  0  0  0
 19 45  1  0  0  0  0
M  CHG  1   2   1
M  END
> <PUBCHEM_COMPOUND_CID>
38279588

> <PUBCHEM_COMPOUND_CANONICALIZED>
1

> <PUBCHEM_CACTVS_COMPLEXITY>
269

> <PUBCHEM_CACTVS_HBOND_ACCEPTOR>
1

> <PUBCHEM_CACTVS_HBOND_DONOR>
3

> <PUBCHEM_CACTVS_ROTATABLE_BOND>
6

> <PUBCHEM_CACTVS_SUBSKEYS>
AAADceBzIAAAAAAAAAAAAAAAAAAAAAAAAAAwAAAAAAAAAAABAAAAHgAQAAAADIjBEAQzwIPAAACIACRCUACCAAAhAgAIiIAIZIiIYCLAkZGUIAholgJIyCcQAAAKAAAAAAAAAAAAAAAAAAAAAAAAAAAAAA==

> <PUBCHEM_IUPAC_OPENEYE_NAME>
[1-ethyl-1-[(phenylcarbamoylamino)methyl]propyl]-dimethyl-ammonium

> <PUBCHEM_IUPAC_CAS_NAME>
3-[[[anilino(oxo)methyl]amino]methyl]pentan-3-yl-dimethylammonium

> <PUBCHEM_IUPAC_NAME>
dimethyl-[3-[(phenylcarbamoylamino)methyl]pentan-3-yl]azanium

> <PUBCHEM_IUPAC_SYSTEMATIC_NAME>
dimethyl-[3-[(phenylcarbamoylamino)methyl]pentan-3-yl]azanium

> <PUBCHEM_IUPAC_TRADITIONAL_NAME>
[1-ethyl-1-[(phenylcarbamoylamino)methyl]propyl]-dimethyl-ammonium

> <PUBCHEM_IUPAC_INCHI>
InChI=1S/C15H25N3O/c1-5-15(6-2,18(3)4)12-16-14(19)17-13-10-8-7-9-11-13/h7-11H,5-6,12H2,1-4H3,(H2,16,17,19)/p+1

> <PUBCHEM_IUPAC_INCHIKEY>
ZUKHXXFQAHKPSM-UHFFFAOYSA-O

> <PUBCHEM_XLOGP3>
3

> <PUBCHEM_EXACT_MASS>
264.207587

> <PUBCHEM_MOLECULAR_FORMULA>
C15H26N3O+

> <PUBCHEM_MOLECULAR_WEIGHT>
264.38644

> <PUBCHEM_OPENEYE_CAN_SMILES>
CCC(CC)(CNC(=O)NC1=CC=CC=C1)[NH+](C)C

> <PUBCHEM_OPENEYE_ISO_SMILES>
CCC(CC)(CNC(=O)NC1=CC=CC=C1)[NH+](C)C

> <PUBCHEM_CACTVS_TPSA>
45.6

> <PUBCHEM_MONOISOTOPIC_WEIGHT>
264.207587

> <PUBCHEM_TOTAL_CHARGE>
1

> <PUBCHEM_HEAVY_ATOM_COUNT>
19

> <PUBCHEM_ATOM_DEF_STEREO_COUNT>
0

> <PUBCHEM_ATOM_UDEF_STEREO_COUNT>
0

> <PUBCHEM_BOND_DEF_STEREO_COUNT>
0

> <PUBCHEM_BOND_UDEF_STEREO_COUNT>
0

> <PUBCHEM_ISOTOPIC_ATOM_COUNT>
0

> <PUBCHEM_COMPONENT_COUNT>
1

> <PUBCHEM_CACTVS_TAUTO_COUNT>
3

> <PUBCHEM_COORDINATE_TYPE>
1
5
255

> <PUBCHEM_BONDANNOTATIONS>
14  15  8
14  16  8
15  17  8
16  18  8
17  19  8
18  19  8

$$$$
38293771
  -OEChem-12041211532D

 32 33  0     0  0  0  0  0  0999 V2000
    2.0000   -3.2500    0.0000 I   0  0  0  0  0  0  0  0  0  0  0  0
    2.8660    0.2500    0.0000 O   0  0  0  0  0  0  0  0  0  0  0  0
    4.5981    0.2500    0.0000 N   0  0  0  0  0  0  0  0  0  0  0  0
    5.4641    1.7500    0.0000 C   0  0  0  0  0  0  0  0  0  0  0  0
    4.5981    1.2500    0.0000 C   0  0  0  0  0  0  0  0  0  0  0  0
    6.3301    1.2500    0.0000 C   0  0  0  0  0  0  0  0  0  0  0  0
    7.1962    1.7500    0.0000 C   0  0  0  0  0  0  0  0  0  0  0  0
    5.4641    2.7500    0.0000 C   0  0  0  0  0  0  0  0  0  0  0  0
    7.1962    2.7500    0.0000 C   0  0  0  0  0  0  0  0  0  0  0  0
    6.3301    3.2500    0.0000 C   0  0  0  0  0  0  0  0  0  0  0  0
    3.7320   -0.2500    0.0000 C   0  0  0  0  0  0  0  0  0  0  0  0
    3.7320   -1.2500    0.0000 C   0  0  0  0  0  0  0  0  0  0  0  0
    8.0622    1.2500    0.0000 C   0  0  0  0  0  0  0  0  0  0  0  0
    2.8660   -1.7500    0.0000 C   0  0  0  0  0  0  0  0  0  0  0  0
    4.5981   -1.7500    0.0000 C   0  0  0  0  0  0  0  0  0  0  0  0
    2.8660   -2.7500    0.0000 C   0  0  0  0  0  0  0  0  0  0  0  0
    4.5981   -2.7500    0.0000 C   0  0  0  0  0  0  0  0  0  0  0  0
    3.7320   -3.2500    0.0000 C   0  0  0  0  0  0  0  0  0  0  0  0
    4.3860    1.8326    0.0000 H   0  0  0  0  0  0  0  0  0  0  0  0
    3.9875    1.1423    0.0000 H   0  0  0  0  0  0  0  0  0  0  0  0
    6.3301    0.6300    0.0000 H   0  0  0  0  0  0  0  0  0  0  0  0
    4.9272    3.0600    0.0000 H   0  0  0  0  0  0  0  0  0  0  0  0
    5.1350   -0.0600    0.0000 H   0  0  0  0  0  0  0  0  0  0  0  0
    7.7331    3.0600    0.0000 H   0  0  0  0  0  0  0  0  0  0  0  0
    6.3301    3.8700    0.0000 H   0  0  0  0  0  0  0  0  0  0  0  0
    7.7522    0.7131    0.0000 H   0  0  0  0  0  0  0  0  0  0  0  0
    8.5991    0.9400    0.0000 H   0  0  0  0  0  0  0  0  0  0  0  0
    8.3722    1.7869    0.0000 H   0  0  0  0  0  0  0  0  0  0  0  0
    2.3291   -1.4400    0.0000 H   0  0  0  0  0  0  0  0  0  0  0  0
    5.1350   -1.4400    0.0000 H   0  0  0  0  0  0  0  0  0  0  0  0
    5.1350   -3.0600    0.0000 H   0  0  0  0  0  0  0  0  0  0  0  0
    3.7320   -3.8700    0.0000 H   0  0  0  0  0  0  0  0  0  0  0  0
  1 16  1  0  0  0  0
  2 11  2  0  0  0  0
  3  5  1  0  0  0  0
  3 11  1  0  0  0  0
  3 23  1  0  0  0  0
  4  5  1  0  0  0  0
  4  6  1  0  0  0  0
  4  8  2  0  0  0  0
  5 19  1  0  0  0  0
  5 20  1  0  0  0  0
  6  7  2  0  0  0  0
  6 21  1  0  0  0  0
  7  9  1  0  0  0  0
  7 13  1  0  0  0  0
  8 10  1  0  0  0  0
  8 22  1  0  0  0  0
  9 10  2  0  0  0  0
  9 24  1  0  0  0  0
 10 25  1  0  0  0  0
 11 12  1  0  0  0  0
 12 14  2  0  0  0  0
 12 15  1  0  0  0  0
 13 26  1  0  0  0  0
 13 27  1  0  0  0  0
 13 28  1  0  0  0  0
 14 16  1  0  0  0  0
 14 29  1  0  0  0  0
 15 17  2  0  0  0  0
 15 30  1  0  0  0  0
 16 18  2  0  0  0  0
 17 18  1  0  0  0  0
 17 31  1  0  0  0  0
 18 32  1  0  0  0  0
M  END
> <PUBCHEM_COMPOUND_CID>
38293771

> <PUBCHEM_COMPOUND_CANONICALIZED>
1

> <PUBCHEM_CACTVS_COMPLEXITY>
282

> <PUBCHEM_CACTVS_HBOND_ACCEPTOR>
1

> <PUBCHEM_CACTVS_HBOND_DONOR>
1

> <PUBCHEM_CACTVS_ROTATABLE_BOND>
3

> <PUBCHEM_CACTVS_SUBSKEYS>
AAADccByIAAAAgAAAAAAAAAAAAAAAAAAAAAwYAAAAAAAAAABQAAAHgAwAAAADADDmAQyAILAAACIAiFSEACCAAAkAAAIiIEIBMgIIDKAlRGEIQhghgCIiYcYiECOAAACAAAAAAAAAAQAAAAAAAAAAAAAAA==

> <PUBCHEM_IUPAC_OPENEYE_NAME>
3-iodo-N-(m-tolylmethyl)benzamide

> <PUBCHEM_IUPAC_CAS_NAME>
3-iodo-N-[(3-methylphenyl)methyl]benzamide

> <PUBCHEM_IUPAC_NAME>
3-iodo-N-[(3-methylphenyl)methyl]benzamide

> <PUBCHEM_IUPAC_SYSTEMATIC_NAME>
3-iodanyl-N-[(3-methylphenyl)methyl]benzamide

> <PUBCHEM_IUPAC_TRADITIONAL_NAME>
3-iodo-N-(3-methylbenzyl)benzamide

> <PUBCHEM_IUPAC_INCHI>
InChI=1S/C15H14INO/c1-11-4-2-5-12(8-11)10-17-15(18)13-6-3-7-14(16)9-13/h2-9H,10H2,1H3,(H,17,18)

> <PUBCHEM_IUPAC_INCHIKEY>
RRBJBPIQJOOKCU-UHFFFAOYSA-N

> <PUBCHEM_XLOGP3>
4.1

> <PUBCHEM_EXACT_MASS>
351.012012

> <PUBCHEM_MOLECULAR_FORMULA>
C15H14INO

> <PUBCHEM_MOLECULAR_WEIGHT>
351.18223

> <PUBCHEM_OPENEYE_CAN_SMILES>
CC1=CC(=CC=C1)CNC(=O)C2=CC(=CC=C2)I

> <PUBCHEM_OPENEYE_ISO_SMILES>
CC1=CC(=CC=C1)CNC(=O)C2=CC(=CC=C2)I

> <PUBCHEM_CACTVS_TPSA>
29.1

> <PUBCHEM_MONOISOTOPIC_WEIGHT>
351.012012

> <PUBCHEM_TOTAL_CHARGE>
0

> <PUBCHEM_HEAVY_ATOM_COUNT>
18

> <PUBCHEM_ATOM_DEF_STEREO_COUNT>
0

> <PUBCHEM_ATOM_UDEF_STEREO_COUNT>
0

> <PUBCHEM_BOND_DEF_STEREO_COUNT>
0

> <PUBCHEM_BOND_UDEF_STEREO_COUNT>
0

> <PUBCHEM_ISOTOPIC_ATOM_COUNT>
0

> <PUBCHEM_COMPONENT_COUNT>
1

> <PUBCHEM_CACTVS_TAUTO_COUNT>
2

> <PUBCHEM_COORDINATE_TYPE>
1
5
255

> <PUBCHEM_BONDANNOTATIONS>
12  14  8
12  15  8
14  16  8
15  17  8
16  18  8
17  18  8
4  6  8
4  8  8
6  7  8
7  9  8
8  10  8
9  10  8

$$$$
38293793
  -OEChem-12041211532D

 42 44  0     0  0  0  0  0  0999 V2000
    5.6103    1.1622    0.0000 O   0  0  0  0  0  0  0  0  0  0  0  0
    4.6783   -3.2988    0.0000 N   0  0  0  0  0  0  0  0  0  0  0  0
    7.2566    0.6241    0.0000 N   0  0  0  0  0  0  0  0  0  0  0  0
    4.6783   -1.6893    0.0000 C   0  0  0  0  0  0  0  0  0  0  0  0
    4.9889   -0.7388    0.0000 C   0  0  0  0  0  0  0  0  0  0  0  0
    3.7321   -1.9941    0.0000 C   0  0  0  0  0  0  0  0  0  0  0  0
    5.9674   -0.5326    0.0000 C   0  0  0  0  0  0  0  0  0  0  0  0
    3.7321   -2.9941    0.0000 C   0  0  0  0  0  0  0  0  0  0  0  0
    5.2619   -2.4941    0.0000 C   0  0  0  0  0  0  0  0  0  0  0  0
    2.8660   -1.4941    0.0000 C   0  0  0  0  0  0  0  0  0  0  0  0
    6.2781    0.4179    0.0000 C   0  0  0  0  0  0  0  0  0  0  0  0
    2.8660   -3.4941    0.0000 C   0  0  0  0  0  0  0  0  0  0  0  0
    7.5673    1.5747    0.0000 C   0  0  0  0  0  0  0  0  0  0  0  0
    8.5458    1.7809    0.0000 C   0  0  0  0  0  0  0  0  0  0  0  0
    2.0000   -1.9941    0.0000 C   0  0  0  0  0  0  0  0  0  0  0  0
    2.0000   -2.9941    0.0000 C   0  0  0  0  0  0  0  0  0  0  0  0
    8.8564    2.7314    0.0000 C   0  0  0  0  0  0  0  0  0  0  0  0
    9.8349    2.9376    0.0000 C   0  0  0  0  0  0  0  0  0  0  0  0
    9.2136    1.0366    0.0000 C   0  0  0  0  0  0  0  0  0  0  0  0
   10.5028    2.1933    0.0000 C   0  0  0  0  0  0  0  0  0  0  0  0
   10.1921    1.2428    0.0000 C   0  0  0  0  0  0  0  0  0  0  0  0
   10.1456    3.8881    0.0000 C   0  0  0  0  0  0  0  0  0  0  0  0
    4.9684   -0.1192    0.0000 H   0  0  0  0  0  0  0  0  0  0  0  0
    4.3751   -0.6515    0.0000 H   0  0  0  0  0  0  0  0  0  0  0  0
    5.9880   -1.1523    0.0000 H   0  0  0  0  0  0  0  0  0  0  0  0
    6.5813   -0.6200    0.0000 H   0  0  0  0  0  0  0  0  0  0  0  0
    5.8819   -2.4941    0.0000 H   0  0  0  0  0  0  0  0  0  0  0  0
    4.8709   -3.8881    0.0000 H   0  0  0  0  0  0  0  0  0  0  0  0
    2.8660   -0.8741    0.0000 H   0  0  0  0  0  0  0  0  0  0  0  0
    2.8660   -4.1141    0.0000 H   0  0  0  0  0  0  0  0  0  0  0  0
    7.5467    2.1943    0.0000 H   0  0  0  0  0  0  0  0  0  0  0  0
    6.9535    1.6620    0.0000 H   0  0  0  0  0  0  0  0  0  0  0  0
    7.6707    0.1627    0.0000 H   0  0  0  0  0  0  0  0  0  0  0  0
    1.4631   -1.6841    0.0000 H   0  0  0  0  0  0  0  0  0  0  0  0
    1.4631   -3.3041    0.0000 H   0  0  0  0  0  0  0  0  0  0  0  0
    8.4424    3.1929    0.0000 H   0  0  0  0  0  0  0  0  0  0  0  0
    9.0210    0.4472    0.0000 H   0  0  0  0  0  0  0  0  0  0  0  0
   11.1095    2.3212    0.0000 H   0  0  0  0  0  0  0  0  0  0  0  0
   10.6062    0.7813    0.0000 H   0  0  0  0  0  0  0  0  0  0  0  0
   10.7349    3.6955    0.0000 H   0  0  0  0  0  0  0  0  0  0  0  0
   10.3382    4.4775    0.0000 H   0  0  0  0  0  0  0  0  0  0  0  0
    9.5563    4.0807    0.0000 H   0  0  0  0  0  0  0  0  0  0  0  0
  1 11  2  0  0  0  0
  2  8  1  0  0  0  0
  2  9  1  0  0  0  0
  2 28  1  0  0  0  0
  3 11  1  0  0  0  0
  3 13  1  0  0  0  0
  3 33  1  0  0  0  0
  4  5  1  0  0  0  0
  4  6  1  0  0  0  0
  4  9  2  0  0  0  0
  5  7  1  0  0  0  0
  5 23  1  0  0  0  0
  5 24  1  0  0  0  0
  6  8  1  0  0  0  0
  6 10  2  0  0  0  0
  7 11  1  0  0  0  0
  7 25  1  0  0  0  0
  7 26  1  0  0  0  0
  8 12  2  0  0  0  0
  9 27  1  0  0  0  0
 10 15  1  0  0  0  0
 10 29  1  0  0  0  0
 12 16  1  0  0  0  0
 12 30  1  0  0  0  0
 13 14  1  0  0  0  0
 13 31  1  0  0  0  0
 13 32  1  0  0  0  0
 14 17  1  0  0  0  0
 14 19  2  0  0  0  0
 15 16  2  0  0  0  0
 15 34  1  0  0  0  0
 16 35  1  0  0  0  0
 17 18  2  0  0  0  0
 17 36  1  0  0  0  0
 18 20  1  0  0  0  0
 18 22  1  0  0  0  0
 19 21  1  0  0  0  0
 19 37  1  0  0  0  0
 20 21  2  0  0  0  0
 20 38  1  0  0  0  0
 21 39  1  0  0  0  0
 22 40  1  0  0  0  0
 22 41  1  0  0  0  0
 22 42  1  0  0  0  0
M  END
> <PUBCHEM_COMPOUND_CID>
38293793

> <PUBCHEM_COMPOUND_CANONICALIZED>
1

> <PUBCHEM_CACTVS_COMPLEXITY>
370

> <PUBCHEM_CACTVS_HBOND_ACCEPTOR>
1

> <PUBCHEM_CACTVS_HBOND_DONOR>
2

> <PUBCHEM_CACTVS_ROTATABLE_BOND>
5

> <PUBCHEM_CACTVS_SUBSKEYS>
AAADceB7IAAAAAAAAAAAAAAAAAAAAWAAAAAwYAAAAAAAAFgB9AAAHgAQAAAADAjBngQ+wPLJkACoAzV3VACCgCAxAiAI2aE4ZJgIIPLAkZGEIAhglgDIyAcYicCOgAACAAACAAAAAAQAAAQAAAAAAAAAAA==

> <PUBCHEM_IUPAC_OPENEYE_NAME>
3-(1H-indol-3-yl)-N-(m-tolylmethyl)propanamide

> <PUBCHEM_IUPAC_CAS_NAME>
3-(1H-indol-3-yl)-N-[(3-methylphenyl)methyl]propanamide

> <PUBCHEM_IUPAC_NAME>
3-(1H-indol-3-yl)-N-[(3-methylphenyl)methyl]propanamide

> <PUBCHEM_IUPAC_SYSTEMATIC_NAME>
3-(1H-indol-3-yl)-N-[(3-methylphenyl)methyl]propanamide

> <PUBCHEM_IUPAC_TRADITIONAL_NAME>
3-(1H-indol-3-yl)-N-(3-methylbenzyl)propionamide

> <PUBCHEM_IUPAC_INCHI>
InChI=1S/C19H20N2O/c1-14-5-4-6-15(11-14)12-21-19(22)10-9-16-13-20-18-8-3-2-7-17(16)18/h2-8,11,13,20H,9-10,12H2,1H3,(H,21,22)

> <PUBCHEM_IUPAC_INCHIKEY>
OFOIEKDIDZRSRP-UHFFFAOYSA-N

> <PUBCHEM_XLOGP3>
3.4

> <PUBCHEM_EXACT_MASS>
292.157563

> <PUBCHEM_MOLECULAR_FORMULA>
C19H20N2O

> <PUBCHEM_MOLECULAR_WEIGHT>
292.3749

> <PUBCHEM_OPENEYE_CAN_SMILES>
CC1=CC(=CC=C1)CNC(=O)CCC2=CNC3=CC=CC=C32

> <PUBCHEM_OPENEYE_ISO_SMILES>
CC1=CC(=CC=C1)CNC(=O)CCC2=CNC3=CC=CC=C32

> <PUBCHEM_CACTVS_TPSA>
44.9

> <PUBCHEM_MONOISOTOPIC_WEIGHT>
292.157563

> <PUBCHEM_TOTAL_CHARGE>
0

> <PUBCHEM_HEAVY_ATOM_COUNT>
22

> <PUBCHEM_ATOM_DEF_STEREO_COUNT>
0

> <PUBCHEM_ATOM_UDEF_STEREO_COUNT>
0

> <PUBCHEM_BOND_DEF_STEREO_COUNT>
0

> <PUBCHEM_BOND_UDEF_STEREO_COUNT>
0

> <PUBCHEM_ISOTOPIC_ATOM_COUNT>
0

> <PUBCHEM_COMPONENT_COUNT>
1

> <PUBCHEM_CACTVS_TAUTO_COUNT>
2

> <PUBCHEM_COORDINATE_TYPE>
1
5
255

> <PUBCHEM_BONDANNOTATIONS>
10  15  8
12  16  8
14  17  8
14  19  8
15  16  8
17  18  8
18  20  8
19  21  8
2  8  8
2  9  8
20  21  8
4  6  8
4  9  8
6  10  8
6  8  8
8  12  8

$$$$
