27506224
  -OEChem-12041211322D

 33 34  0     1  0  0  0  0  0999 V2000
    6.7619   -1.0306    0.0000 N   0  3  0  0  0  0  0  0  0  0  0  0
    4.6783    0.6402    0.0000 N   0  0  0  0  0  0  0  0  0  0  0  0
    4.6783   -0.9693    0.0000 N   0  0  0  0  0  0  0  0  0  0  0  0
    6.2619   -0.1645    0.0000 C   0  0  2  0  0  0  0  0  0  0  0  0
    6.7619    0.7015    0.0000 C   0  0  0  0  0  0  0  0  0  0  0  0
    7.7619    0.7015    0.0000 C   0  0  0  0  0  0  0  0  0  0  0  0
    5.2619   -0.1645    0.0000 C   0  0  0  0  0  0  0  0  0  0  0  0
    8.2619    1.5675    0.0000 C   0  0  0  0  0  0  0  0  0  0  0  0
    3.7320    0.3355    0.0000 C   0  0  0  0  0  0  0  0  0  0  0  0
    3.7320   -0.6645    0.0000 C   0  0  0  0  0  0  0  0  0  0  0  0
    9.2619    1.5675    0.0000 C   0  0  0  0  0  0  0  0  0  0  0  0
    2.8660    0.8355    0.0000 C   0  0  0  0  0  0  0  0  0  0  0  0
    2.8660   -1.1645    0.0000 C   0  0  0  0  0  0  0  0  0  0  0  0
    2.0000    0.3355    0.0000 C   0  0  0  0  0  0  0  0  0  0  0  0
    2.0000   -0.6645    0.0000 C   0  0  0  0  0  0  0  0  0  0  0  0
    6.8819   -0.1645    0.0000 H   0  0  0  0  0  0  0  0  0  0  0  0
    6.8695    1.3121    0.0000 H   0  0  0  0  0  0  0  0  0  0  0  0
    6.1793    0.9135    0.0000 H   0  0  0  0  0  0  0  0  0  0  0  0
    7.6542    0.0909    0.0000 H   0  0  0  0  0  0  0  0  0  0  0  0
    8.3445    0.4894    0.0000 H   0  0  0  0  0  0  0  0  0  0  0  0
    7.0719   -1.5675    0.0000 H   0  0  0  0  0  0  0  0  0  0  0  0
    7.2988   -0.7206    0.0000 H   0  0  0  0  0  0  0  0  0  0  0  0
    6.2249   -1.3406    0.0000 H   0  0  0  0  0  0  0  0  0  0  0  0
    8.3695    2.1781    0.0000 H   0  0  0  0  0  0  0  0  0  0  0  0
    7.6793    1.7796    0.0000 H   0  0  0  0  0  0  0  0  0  0  0  0
    4.8709    1.2295    0.0000 H   0  0  0  0  0  0  0  0  0  0  0  0
    9.2619    0.9475    0.0000 H   0  0  0  0  0  0  0  0  0  0  0  0
    9.8819    1.5675    0.0000 H   0  0  0  0  0  0  0  0  0  0  0  0
    9.2619    2.1875    0.0000 H   0  0  0  0  0  0  0  0  0  0  0  0
    2.8660    1.4555    0.0000 H   0  0  0  0  0  0  0  0  0  0  0  0
    2.8660   -1.7845    0.0000 H   0  0  0  0  0  0  0  0  0  0  0  0
    1.4631    0.6455    0.0000 H   0  0  0  0  0  0  0  0  0  0  0  0
    1.4631   -0.9745    0.0000 H   0  0  0  0  0  0  0  0  0  0  0  0
  4  1  1  1  0  0  0
  1 21  1  0  0  0  0
  1 22  1  0  0  0  0
  1 23  1  0  0  0  0
  2  7  1  0  0  0  0
  2  9  1  0  0  0  0
  2 26  1  0  0  0  0
  3  7  2  0  0  0  0
  3 10  1  0  0  0  0
  4  5  1  0  0  0  0
  4  7  1  0  0  0  0
  4 16  1  0  0  0  0
  5  6  1  0  0  0  0
  5 17  1  0  0  0  0
  5 18  1  0  0  0  0
  6  8  1  0  0  0  0
  6 19  1  0  0  0  0
  6 20  1  0  0  0  0
  8 11  1  0  0  0  0
  8 24  1  0  0  0  0
  8 25  1  0  0  0  0
  9 10  1  0  0  0  0
  9 12  2  0  0  0  0
 10 13  2  0  0  0  0
 11 27  1  0  0  0  0
 11 28  1  0  0  0  0
 11 29  1  0  0  0  0
 12 14  1  0  0  0  0
 12 30  1  0  0  0  0
 13 15  1  0  0  0  0
 13 31  1  0  0  0  0
 14 15  2  0  0  0  0
 14 32  1  0  0  0  0
 15 33  1  0  0  0  0
M  CHG  1   1   1
M  END
> <PUBCHEM_COMPOUND_CID>
27506224

> <PUBCHEM_COMPOUND_CANONICALIZED>
1

> <PUBCHEM_CACTVS_COMPLEXITY>
195

> <PUBCHEM_CACTVS_HBOND_ACCEPTOR>
1

> <PUBCHEM_CACTVS_HBOND_DONOR>
2

> <PUBCHEM_CACTVS_ROTATABLE_BOND>
4

> <PUBCHEM_CACTVS_SUBSKEYS>
AAADceBzAAAAAAAAAAAAAAAAAAAAAWAAAAAwAAAAAAAAAFgB8AAAHAAQAAAACCjBFwQz0LbJkACgASZiZACCgC2hEqAJmaAwdJiIaKLAmZGUIAhokALIyCcQAAAAAAAAAAAAACAAAAAAAAAAQAAAAAAAAA==

> <PUBCHEM_IUPAC_OPENEYE_NAME>
[(1R)-1-(1H-benzimidazol-2-yl)pentyl]ammonium

> <PUBCHEM_IUPAC_CAS_NAME>
[(1R)-1-(1H-benzimidazol-2-yl)pentyl]ammonium

> <PUBCHEM_IUPAC_NAME>
[(1R)-1-(1H-benzimidazol-2-yl)pentyl]azanium

> <PUBCHEM_IUPAC_SYSTEMATIC_NAME>
[(1R)-1-(1H-benzimidazol-2-yl)pentyl]azanium

> <PUBCHEM_IUPAC_TRADITIONAL_NAME>
[(1R)-1-(1H-benzimidazol-2-yl)pentyl]ammonium

> <PUBCHEM_IUPAC_INCHI>
InChI=1S/C12H17N3/c1-2-3-6-9(13)12-14-10-7-4-5-8-11(10)15-12/h4-5,7-9H,2-3,6,13H2,1H3,(H,14,15)/p+1/t9-/m1/s1

> <PUBCHEM_IUPAC_INCHIKEY>
UJHPABYZJRSRMS-SECBINFHSA-O

> <PUBCHEM_XLOGP3>
2.5

> <PUBCHEM_EXACT_MASS>
204.150073

> <PUBCHEM_MOLECULAR_FORMULA>
C12H18N3+

> <PUBCHEM_MOLECULAR_WEIGHT>
204.29142

> <PUBCHEM_OPENEYE_CAN_SMILES>
CCCCC(C1=NC2=CC=CC=C2N1)[NH3+]

> <PUBCHEM_OPENEYE_ISO_SMILES>
CCCC[C@H](C1=NC2=CC=CC=C2N1)[NH3+]

> <PUBCHEM_CACTVS_TPSA>
56.3

> <PUBCHEM_MONOISOTOPIC_WEIGHT>
204.150073

> <PUBCHEM_TOTAL_CHARGE>
1

> <PUBCHEM_HEAVY_ATOM_COUNT>
15

> <PUBCHEM_ATOM_DEF_STEREO_COUNT>
1

> <PUBCHEM_ATOM_UDEF_STEREO_COUNT>
0

> <PUBCHEM_BOND_DEF_STEREO_COUNT>
0

> <PUBCHEM_BOND_UDEF_STEREO_COUNT>
0

> <PUBCHEM_ISOTOPIC_ATOM_COUNT>
0

> <PUBCHEM_COMPONENT_COUNT>
1

> <PUBCHEM_CACTVS_TAUTO_COUNT>
1

> <PUBCHEM_COORDINATE_TYPE>
1
5
255

> <PUBCHEM_BONDANNOTATIONS>
4  1  5
10  13  8
12  14  8
13  15  8
14  15  8
2  7  8
2  9  8
3  10  8
3  7  8
9  10  8
9  12  8

$$$$
27506230
  -OEChem-12041211322D

 33 34  0     1  0  0  0  0  0999 V2000
    6.7619   -1.0306    0.0000 N   0  3  0  0  0  0  0  0  0  0  0  0
    4.6783    0.6402    0.0000 N   0  0  0  0  0  0  0  0  0  0  0  0
    4.6783   -0.9693    0.0000 N   0  0  0  0  0  0  0  0  0  0  0  0
    6.2619   -0.1645    0.0000 C   0  0  1  0  0  0  0  0  0  0  0  0
    6.7619    0.7015    0.0000 C   0  0  0  0  0  0  0  0  0  0  0  0
    7.7619    0.7015    0.0000 C   0  0  0  0  0  0  0  0  0  0  0  0
    5.2619   -0.1645    0.0000 C   0  0  0  0  0  0  0  0  0  0  0  0
    8.2619    1.5675    0.0000 C   0  0  0  0  0  0  0  0  0  0  0  0
    3.7320    0.3355    0.0000 C   0  0  0  0  0  0  0  0  0  0  0  0
    3.7320   -0.6645    0.0000 C   0  0  0  0  0  0  0  0  0  0  0  0
    9.2619    1.5675    0.0000 C   0  0  0  0  0  0  0  0  0  0  0  0
    2.8660    0.8355    0.0000 C   0  0  0  0  0  0  0  0  0  0  0  0
    2.8660   -1.1645    0.0000 C   0  0  0  0  0  0  0  0  0  0  0  0
    2.0000    0.3355    0.0000 C   0  0  0  0  0  0  0  0  0  0  0  0
    2.0000   -0.6645    0.0000 C   0  0  0  0  0  0  0  0  0  0  0  0
    6.8819   -0.1645    0.0000 H   0  0  0  0  0  0  0  0  0  0  0  0
    6.8695    1.3121    0.0000 H   0  0  0  0  0  0  0  0  0  0  0  0
    6.1793    0.9135    0.0000 H   0  0  0  0  0  0  0  0  0  0  0  0
    7.6542    0.0909    0.0000 H   0  0  0  0  0  0  0  0  0  0  0  0
    8.3445    0.4894    0.0000 H   0  0  0  0  0  0  0  0  0  0  0  0
    7.0719   -1.5675    0.0000 H   0  0  0  0  0  0  0  0  0  0  0  0
    7.2988   -0.7206    0.0000 H   0  0  0  0  0  0  0  0  0  0  0  0
    6.2249   -1.3406    0.0000 H   0  0  0  0  0  0  0  0  0  0  0  0
    8.3695    2.1781    0.0000 H   0  0  0  0  0  0  0  0  0  0  0  0
    7.6793    1.7796    0.0000 H   0  0  0  0  0  0  0  0  0  0  0  0
    4.8709    1.2295    0.0000 H   0  0  0  0  0  0  0  0  0  0  0  0
    9.2619    0.9475    0.0000 H   0  0  0  0  0  0  0  0  0  0  0  0
    9.8819    1.5675    0.0000 H   0  0  0  0  0  0  0  0  0  0  0  0
    9.2619    2.1875    0.0000 H   0  0  0  0  0  0  0  0  0  0  0  0
    2.8660    1.4555    0.0000 H   0  0  0  0  0  0  0  0  0  0  0  0
    2.8660   -1.7845    0.0000 H   0  0  0  0  0  0  0  0  0  0  0  0
    1.4631    0.6455    0.0000 H   0  0  0  0  0  0  0  0  0  0  0  0
    1.4631   -0.9745    0.0000 H   0  0  0  0  0  0  0  0  0  0  0  0
  4  1  1  6  0  0  0
  1 21  1  0  0  0  0
  1 22  1  0  0  0  0
  1 23  1  0  0  0  0
  2  7  1  0  0  0  0
  2  9  1  0  0  0  0
  2 26  1  0  0  0  0
  3  7  2  0  0  0  0
  3 10  1  0  0  0  0
  4  5  1  0  0  0  0
  4  7  1  0  0  0  0
  4 16  1  0  0  0  0
  5  6  1  0  0  0  0
  5 17  1  0  0  0  0
  5 18  1  0  0  0  0
  6  8  1  0  0  0  0
  6 19  1  0  0  0  0
  6 20  1  0  0  0  0
  8 11  1  0  0  0  0
  8 24  1  0  0  0  0
  8 25  1  0  0  0  0
  9 10  1  0  0  0  0
  9 12  2  0  0  0  0
 10 13  2  0  0  0  0
 11 27  1  0  0  0  0
 11 28  1  0  0  0  0
 11 29  1  0  0  0  0
 12 14  1  0  0  0  0
 12 30  1  0  0  0  0
 13 15  1  0  0  0  0
 13 31  1  0  0  0  0
 14 15  2  0  0  0  0
 14 32  1  0  0  0  0
 15 33  1  0  0  0  0
M  CHG  1   1   1
M  END
> <PUBCHEM_COMPOUND_CID>
27506230

> <PUBCHEM_COMPOUND_CANONICALIZED>
1

> <PUBCHEM_CACTVS_COMPLEXITY>
195

> <PUBCHEM_CACTVS_HBOND_ACCEPTOR>
1

> <PUBCHEM_CACTVS_HBOND_DONOR>
2

> <PUBCHEM_CACTVS_ROTATABLE_BOND>
4

> <PUBCHEM_CACTVS_SUBSKEYS>
AAADceBzAAAAAAAAAAAAAAAAAAAAAWAAAAAwAAAAAAAAAFgB8AAAHAAQAAAACCjBFwQz0LbJkACgASZiZACCgC2hEqAJmaAwdJiIaKLAmZGUIAhokALIyCcQAAAAAAAAAAAAACAAAAAAAAAAQAAAAAAAAA==

> <PUBCHEM_IUPAC_OPENEYE_NAME>
[(1S)-1-(1H-benzimidazol-2-yl)pentyl]ammonium

> <PUBCHEM_IUPAC_CAS_NAME>
[(1S)-1-(1H-benzimidazol-2-yl)pentyl]ammonium

> <PUBCHEM_IUPAC_NAME>
[(1S)-1-(1H-benzimidazol-2-yl)pentyl]azanium

> <PUBCHEM_IUPAC_SYSTEMATIC_NAME>
[(1S)-1-(1H-benzimidazol-2-yl)pentyl]azanium

> <PUBCHEM_IUPAC_TRADITIONAL_NAME>
[(1S)-1-(1H-benzimidazol-2-yl)pentyl]ammonium

> <PUBCHEM_IUPAC_INCHI>
InChI=1S/C12H17N3/c1-2-3-6-9(13)12-14-10-7-4-5-8-11(10)15-12/h4-5,7-9H,2-3,6,13H2,1H3,(H,14,15)/p+1/t9-/m0/s1

> <PUBCHEM_IUPAC_INCHIKEY>
UJHPABYZJRSRMS-VIFPVBQESA-O

> <PUBCHEM_XLOGP3>
2.5

> <PUBCHEM_EXACT_MASS>
204.150073

> <PUBCHEM_MOLECULAR_FORMULA>
C12H18N3+

> <PUBCHEM_MOLECULAR_WEIGHT>
204.29142

> <PUBCHEM_OPENEYE_CAN_SMILES>
CCCCC(C1=NC2=CC=CC=C2N1)[NH3+]

> <PUBCHEM_OPENEYE_ISO_SMILES>
CCCC[C@@H](C1=NC2=CC=CC=C2N1)[NH3+]

> <PUBCHEM_CACTVS_TPSA>
56.3

> <PUBCHEM_MONOISOTOPIC_WEIGHT>
204.150073

> <PUBCHEM_TOTAL_CHARGE>
1

> <PUBCHEM_HEAVY_ATOM_COUNT>
15

> <PUBCHEM_ATOM_DEF_STEREO_COUNT>
1

> <PUBCHEM_ATOM_UDEF_STEREO_COUNT>
0

> <PUBCHEM_BOND_DEF_STEREO_COUNT>
0

> <PUBCHEM_BOND_UDEF_STEREO_COUNT>
0

> <PUBCHEM_ISOTOPIC_ATOM_COUNT>
0

> <PUBCHEM_COMPONENT_COUNT>
1

> <PUBCHEM_CACTVS_TAUTO_COUNT>
1

> <PUBCHEM_COORDINATE_TYPE>
1
5
255

> <PUBCHEM_BONDANNOTATIONS>
4  1  6
10  13  8
12  14  8
13  15  8
14  15  8
2  7  8
2  9  8
3  10  8
3  7  8
9  10  8
9  12  8

$$$$
27510626
  -OEChem-12041211322D

 40 41  0     0  0  0  0  0  0999 V2000
    2.0000   -3.1830    0.0000 Cl  0  0  0  0  0  0  0  0  0  0  0  0
    3.7320   -4.1830    0.0000 Cl  0  0  0  0  0  0  0  0  0  0  0  0
    5.4641   -0.1830    0.0000 O   0  0  0  0  0  0  0  0  0  0  0  0
    6.3301    3.3170    0.0000 N   0  3  0  0  0  0  0  0  0  0  0  0
    4.5981    1.3170    0.0000 N   0  0  0  0  0  0  0  0  0  0  0  0
    3.7320   -0.1830    0.0000 N   0  0  0  0  0  0  0  0  0  0  0  0
    6.8301    4.1830    0.0000 C   0  0  0  0  0  0  0  0  0  0  0  0
    6.8301    2.4510    0.0000 C   0  0  0  0  0  0  0  0  0  0  0  0
    7.8301    4.1830    0.0000 C   0  0  0  0  0  0  0  0  0  0  0  0
    7.8301    2.4510    0.0000 C   0  0  0  0  0  0  0  0  0  0  0  0
    8.3301    3.3170    0.0000 C   0  0  0  0  0  0  0  0  0  0  0  0
    5.4641    2.8170    0.0000 C   0  0  0  0  0  0  0  0  0  0  0  0
    5.4641    1.8170    0.0000 C   0  0  0  0  0  0  0  0  0  0  0  0
    4.5981    0.3170    0.0000 C   0  0  0  0  0  0  0  0  0  0  0  0
    3.7320   -1.1830    0.0000 C   0  0  0  0  0  0  0  0  0  0  0  0
    2.8660   -1.6830    0.0000 C   0  0  0  0  0  0  0  0  0  0  0  0
    4.5981   -1.6830    0.0000 C   0  0  0  0  0  0  0  0  0  0  0  0
    2.8660   -2.6830    0.0000 C   0  0  0  0  0  0  0  0  0  0  0  0
    4.5981   -2.6830    0.0000 C   0  0  0  0  0  0  0  0  0  0  0  0
    3.7320   -3.1830    0.0000 C   0  0  0  0  0  0  0  0  0  0  0  0
    5.4641    3.8170    0.0000 H   0  0  0  0  0  0  0  0  0  0  0  0
    6.9378    4.7936    0.0000 H   0  0  0  0  0  0  0  0  0  0  0  0
    6.2475    4.3951    0.0000 H   0  0  0  0  0  0  0  0  0  0  0  0
    6.2475    2.2389    0.0000 H   0  0  0  0  0  0  0  0  0  0  0  0
    6.9378    1.8404    0.0000 H   0  0  0  0  0  0  0  0  0  0  0  0
    8.4127    4.3951    0.0000 H   0  0  0  0  0  0  0  0  0  0  0  0
    7.7225    4.7936    0.0000 H   0  0  0  0  0  0  0  0  0  0  0  0
    7.7225    1.8404    0.0000 H   0  0  0  0  0  0  0  0  0  0  0  0
    8.4127    2.2389    0.0000 H   0  0  0  0  0  0  0  0  0  0  0  0
    8.8051    2.9185    0.0000 H   0  0  0  0  0  0  0  0  0  0  0  0
    8.8051    3.7155    0.0000 H   0  0  0  0  0  0  0  0  0  0  0  0
    5.2520    3.3996    0.0000 H   0  0  0  0  0  0  0  0  0  0  0  0
    4.8535    2.7093    0.0000 H   0  0  0  0  0  0  0  0  0  0  0  0
    5.6762    1.2344    0.0000 H   0  0  0  0  0  0  0  0  0  0  0  0
    6.0747    1.9246    0.0000 H   0  0  0  0  0  0  0  0  0  0  0  0
    4.0611    1.6270    0.0000 H   0  0  0  0  0  0  0  0  0  0  0  0
    3.1951    0.1270    0.0000 H   0  0  0  0  0  0  0  0  0  0  0  0
    2.3291   -1.3730    0.0000 H   0  0  0  0  0  0  0  0  0  0  0  0
    5.1350   -1.3730    0.0000 H   0  0  0  0  0  0  0  0  0  0  0  0
    5.1350   -2.9930    0.0000 H   0  0  0  0  0  0  0  0  0  0  0  0
  1 18  1  0  0  0  0
  2 20  1  0  0  0  0
  3 14  2  0  0  0  0
  4  7  1  0  0  0  0
  4  8  1  0  0  0  0
  4 12  1  0  0  0  0
  4 21  1  0  0  0  0
  5 13  1  0  0  0  0
  5 14  1  0  0  0  0
  5 36  1  0  0  0  0
  6 14  1  0  0  0  0
  6 15  1  0  0  0  0
  6 37  1  0  0  0  0
  7  9  1  0  0  0  0
  7 22  1  0  0  0  0
  7 23  1  0  0  0  0
  8 10  1  0  0  0  0
  8 24  1  0  0  0  0
  8 25  1  0  0  0  0
  9 11  1  0  0  0  0
  9 26  1  0  0  0  0
  9 27  1  0  0  0  0
 10 11  1  0  0  0  0
 10 28  1  0  0  0  0
 10 29  1  0  0  0  0
 11 30  1  0  0  0  0
 11 31  1  0  0  0  0
 12 13  1  0  0  0  0
 12 32  1  0  0  0  0
 12 33  1  0  0  0  0
 13 34  1  0  0  0  0
 13 35  1  0  0  0  0
 15 16  2  0  0  0  0
 15 17  1  0  0  0  0
 16 18  1  0  0  0  0
 16 38  1  0  0  0  0
 17 19  2  0  0  0  0
 17 39  1  0  0  0  0
 18 20  2  0  0  0  0
 19 20  1  0  0  0  0
 19 40  1  0  0  0  0
M  CHG  1   4   1
M  END
> <PUBCHEM_COMPOUND_CID>
27510626

> <PUBCHEM_COMPOUND_CANONICALIZED>
1

> <PUBCHEM_CACTVS_COMPLEXITY>
311

> <PUBCHEM_CACTVS_HBOND_ACCEPTOR>
1

> <PUBCHEM_CACTVS_HBOND_DONOR>
3

> <PUBCHEM_CACTVS_ROTATABLE_BOND>
4

> <PUBCHEM_CACTVS_SUBSKEYS>
AAADceBzIAAGAAAAAAAAAAAAAAAAAAAAAAA8QAAAAAAAAAABAAAAHgIQAAAACArBECQxwIPAAACIACRCUACCAAAhBwAIisAIZoiIYCLBk5GUIAholgLIyCcQAAAAAABAAAIAAAQAAIAABAAACAAAAAAAAA==

> <PUBCHEM_IUPAC_OPENEYE_NAME>
1-(3,4-dichlorophenyl)-3-(2-piperidin-1-ium-1-ylethyl)urea

> <PUBCHEM_IUPAC_CAS_NAME>
1-(3,4-dichlorophenyl)-3-[2-(1-piperidin-1-iumyl)ethyl]urea

> <PUBCHEM_IUPAC_NAME>
1-(3,4-dichlorophenyl)-3-(2-piperidin-1-ium-1-ylethyl)urea

> <PUBCHEM_IUPAC_SYSTEMATIC_NAME>
1-(3,4-dichlorophenyl)-3-(2-piperidin-1-ium-1-ylethyl)urea

> <PUBCHEM_IUPAC_TRADITIONAL_NAME>
1-(3,4-dichlorophenyl)-3-(2-piperidin-1-ium-1-ylethyl)urea

> <PUBCHEM_IUPAC_INCHI>
InChI=1S/C14H19Cl2N3O/c15-12-5-4-11(10-13(12)16)18-14(20)17-6-9-19-7-2-1-3-8-19/h4-5,10H,1-3,6-9H2,(H2,17,18,20)/p+1

> <PUBCHEM_IUPAC_INCHIKEY>
ZUSZCKXLJFEAHD-UHFFFAOYSA-O

> <PUBCHEM_XLOGP3>
4

> <PUBCHEM_EXACT_MASS>
316.098343

> <PUBCHEM_MOLECULAR_FORMULA>
C14H20Cl2N3O+

> <PUBCHEM_MOLECULAR_WEIGHT>
317.2341

> <PUBCHEM_OPENEYE_CAN_SMILES>
C1CC[NH+](CC1)CCNC(=O)NC2=CC(=C(C=C2)Cl)Cl

> <PUBCHEM_OPENEYE_ISO_SMILES>
C1CC[NH+](CC1)CCNC(=O)NC2=CC(=C(C=C2)Cl)Cl

> <PUBCHEM_CACTVS_TPSA>
45.6

> <PUBCHEM_MONOISOTOPIC_WEIGHT>
316.098343

> <PUBCHEM_TOTAL_CHARGE>
1

> <PUBCHEM_HEAVY_ATOM_COUNT>
20

> <PUBCHEM_ATOM_DEF_STEREO_COUNT>
0

> <PUBCHEM_ATOM_UDEF_STEREO_COUNT>
0

> <PUBCHEM_BOND_DEF_STEREO_COUNT>
0

> <PUBCHEM_BOND_UDEF_STEREO_COUNT>
0

> <PUBCHEM_ISOTOPIC_ATOM_COUNT>
0

> <PUBCHEM_COMPONENT_COUNT>
1

> <PUBCHEM_CACTVS_TAUTO_COUNT>
3

> <PUBCHEM_COORDINATE_TYPE>
1
5
255

> <PUBCHEM_BONDANNOTATIONS>
15  16  8
15  17  8
16  18  8
17  19  8
18  20  8
19  20  8

$$$$
27510629
  -OEChem-12041211322D

 40 41  0     0  0  0  0  0  0999 V2000
    2.0000   -1.1830    0.0000 Cl  0  0  0  0  0  0  0  0  0  0  0  0
    3.7320   -4.1830    0.0000 Cl  0  0  0  0  0  0  0  0  0  0  0  0
    5.4641   -0.1830    0.0000 O   0  0  0  0  0  0  0  0  0  0  0  0
    6.3301    3.3170    0.0000 N   0  3  0  0  0  0  0  0  0  0  0  0
    4.5981    1.3170    0.0000 N   0  0  0  0  0  0  0  0  0  0  0  0
    3.7320   -0.1830    0.0000 N   0  0  0  0  0  0  0  0  0  0  0  0
    6.8301    4.1830    0.0000 C   0  0  0  0  0  0  0  0  0  0  0  0
    6.8301    2.4510    0.0000 C   0  0  0  0  0  0  0  0  0  0  0  0
    7.8301    4.1830    0.0000 C   0  0  0  0  0  0  0  0  0  0  0  0
    7.8301    2.4510    0.0000 C   0  0  0  0  0  0  0  0  0  0  0  0
    8.3301    3.3170    0.0000 C   0  0  0  0  0  0  0  0  0  0  0  0
    5.4641    2.8170    0.0000 C   0  0  0  0  0  0  0  0  0  0  0  0
    5.4641    1.8170    0.0000 C   0  0  0  0  0  0  0  0  0  0  0  0
    4.5981    0.3170    0.0000 C   0  0  0  0  0  0  0  0  0  0  0  0
    3.7320   -1.1830    0.0000 C   0  0  0  0  0  0  0  0  0  0  0  0
    2.8660   -1.6830    0.0000 C   0  0  0  0  0  0  0  0  0  0  0  0
    4.5981   -1.6830    0.0000 C   0  0  0  0  0  0  0  0  0  0  0  0
    2.8660   -2.6830    0.0000 C   0  0  0  0  0  0  0  0  0  0  0  0
    4.5981   -2.6830    0.0000 C   0  0  0  0  0  0  0  0  0  0  0  0
    3.7320   -3.1830    0.0000 C   0  0  0  0  0  0  0  0  0  0  0  0
    5.4641    3.8170    0.0000 H   0  0  0  0  0  0  0  0  0  0  0  0
    6.2475    2.2389    0.0000 H   0  0  0  0  0  0  0  0  0  0  0  0
    6.9378    1.8404    0.0000 H   0  0  0  0  0  0  0  0  0  0  0  0
    6.9378    4.7936    0.0000 H   0  0  0  0  0  0  0  0  0  0  0  0
    6.2475    4.3951    0.0000 H   0  0  0  0  0  0  0  0  0  0  0  0
    7.7225    1.8404    0.0000 H   0  0  0  0  0  0  0  0  0  0  0  0
    8.4127    2.2389    0.0000 H   0  0  0  0  0  0  0  0  0  0  0  0
    8.4127    4.3951    0.0000 H   0  0  0  0  0  0  0  0  0  0  0  0
    7.7225    4.7936    0.0000 H   0  0  0  0  0  0  0  0  0  0  0  0
    8.8051    2.9185    0.0000 H   0  0  0  0  0  0  0  0  0  0  0  0
    8.8051    3.7155    0.0000 H   0  0  0  0  0  0  0  0  0  0  0  0
    5.2520    3.3996    0.0000 H   0  0  0  0  0  0  0  0  0  0  0  0
    4.8535    2.7093    0.0000 H   0  0  0  0  0  0  0  0  0  0  0  0
    5.6762    1.2344    0.0000 H   0  0  0  0  0  0  0  0  0  0  0  0
    6.0747    1.9246    0.0000 H   0  0  0  0  0  0  0  0  0  0  0  0
    4.0611    1.6270    0.0000 H   0  0  0  0  0  0  0  0  0  0  0  0
    3.1951    0.1270    0.0000 H   0  0  0  0  0  0  0  0  0  0  0  0
    5.1350   -1.3730    0.0000 H   0  0  0  0  0  0  0  0  0  0  0  0
    2.3291   -2.9930    0.0000 H   0  0  0  0  0  0  0  0  0  0  0  0
    5.1350   -2.9930    0.0000 H   0  0  0  0  0  0  0  0  0  0  0  0
  1 16  1  0  0  0  0
  2 20  1  0  0  0  0
  3 14  2  0  0  0  0
  4  7  1  0  0  0  0
  4  8  1  0  0  0  0
  4 12  1  0  0  0  0
  4 21  1  0  0  0  0
  5 13  1  0  0  0  0
  5 14  1  0  0  0  0
  5 36  1  0  0  0  0
  6 14  1  0  0  0  0
  6 15  1  0  0  0  0
  6 37  1  0  0  0  0
  7  9  1  0  0  0  0
  7 24  1  0  0  0  0
  7 25  1  0  0  0  0
  8 10  1  0  0  0  0
  8 22  1  0  0  0  0
  8 23  1  0  0  0  0
  9 11  1  0  0  0  0
  9 28  1  0  0  0  0
  9 29  1  0  0  0  0
 10 11  1  0  0  0  0
 10 26  1  0  0  0  0
 10 27  1  0  0  0  0
 11 30  1  0  0  0  0
 11 31  1  0  0  0  0
 12 13  1  0  0  0  0
 12 32  1  0  0  0  0
 12 33  1  0  0  0  0
 13 34  1  0  0  0  0
 13 35  1  0  0  0  0
 15 16  2  0  0  0  0
 15 17  1  0  0  0  0
 16 18  1  0  0  0  0
 17 19  2  0  0  0  0
 17 38  1  0  0  0  0
 18 20  2  0  0  0  0
 18 39  1  0  0  0  0
 19 20  1  0  0  0  0
 19 40  1  0  0  0  0
M  CHG  1   4   1
M  END
> <PUBCHEM_COMPOUND_CID>
27510629

> <PUBCHEM_COMPOUND_CANONICALIZED>
1

> <PUBCHEM_CACTVS_COMPLEXITY>
311

> <PUBCHEM_CACTVS_HBOND_ACCEPTOR>
1

> <PUBCHEM_CACTVS_HBOND_DONOR>
3

> <PUBCHEM_CACTVS_ROTATABLE_BOND>
4

> <PUBCHEM_CACTVS_SUBSKEYS>
AAADceBzIAAGAAAAAAAAAAAAAAAAAAAAAAA8QAAAAAAAAAABAAAAHgIQAAAACArBECQxwIPAAACIACRCUACCAAAhBwAIiIAIZoiIYCLBk5HUIAholgLIyCcQAAAAAABAAACAABAAAIAAAQAAIAAAAAAAAA==

> <PUBCHEM_IUPAC_OPENEYE_NAME>
1-(2,4-dichlorophenyl)-3-(2-piperidin-1-ium-1-ylethyl)urea

> <PUBCHEM_IUPAC_CAS_NAME>
1-(2,4-dichlorophenyl)-3-[2-(1-piperidin-1-iumyl)ethyl]urea

> <PUBCHEM_IUPAC_NAME>
1-(2,4-dichlorophenyl)-3-(2-piperidin-1-ium-1-ylethyl)urea

> <PUBCHEM_IUPAC_SYSTEMATIC_NAME>
1-(2,4-dichlorophenyl)-3-(2-piperidin-1-ium-1-ylethyl)urea

> <PUBCHEM_IUPAC_TRADITIONAL_NAME>
1-(2,4-dichlorophenyl)-3-(2-piperidin-1-ium-1-ylethyl)urea

> <PUBCHEM_IUPAC_INCHI>
InChI=1S/C14H19Cl2N3O/c15-11-4-5-13(12(16)10-11)18-14(20)17-6-9-19-7-2-1-3-8-19/h4-5,10H,1-3,6-9H2,(H2,17,18,20)/p+1

> <PUBCHEM_IUPAC_INCHIKEY>
QPOLSIWWMDKZAY-UHFFFAOYSA-O

> <PUBCHEM_XLOGP3>
2.9

> <PUBCHEM_EXACT_MASS>
316.098343

> <PUBCHEM_MOLECULAR_FORMULA>
C14H20Cl2N3O+

> <PUBCHEM_MOLECULAR_WEIGHT>
317.2341

> <PUBCHEM_OPENEYE_CAN_SMILES>
C1CC[NH+](CC1)CCNC(=O)NC2=C(C=C(C=C2)Cl)Cl

> <PUBCHEM_OPENEYE_ISO_SMILES>
C1CC[NH+](CC1)CCNC(=O)NC2=C(C=C(C=C2)Cl)Cl

> <PUBCHEM_CACTVS_TPSA>
45.6

> <PUBCHEM_MONOISOTOPIC_WEIGHT>
316.098343

> <PUBCHEM_TOTAL_CHARGE>
1

> <PUBCHEM_HEAVY_ATOM_COUNT>
20

> <PUBCHEM_ATOM_DEF_STEREO_COUNT>
0

> <PUBCHEM_ATOM_UDEF_STEREO_COUNT>
0

> <PUBCHEM_BOND_DEF_STEREO_COUNT>
0

> <PUBCHEM_BOND_UDEF_STEREO_COUNT>
0

> <PUBCHEM_ISOTOPIC_ATOM_COUNT>
0

> <PUBCHEM_COMPONENT_COUNT>
1

> <PUBCHEM_CACTVS_TAUTO_COUNT>
3

> <PUBCHEM_COORDINATE_TYPE>
1
5
255

> <PUBCHEM_BONDANNOTATIONS>
15  16  8
15  17  8
16  18  8
17  19  8
18  20  8
19  20  8

$$$$
27518167
  -OEChem-12041211322D

 50 52  0     0  0  0  0  0  0999 V2000
    3.1340    4.5490    0.0000 Cl  0  0  0  0  0  0  0  0  0  0  0  0
    3.1340    1.5490    0.0000 O   0  0  0  0  0  0  0  0  0  0  0  0
    4.0000   -1.9510    0.0000 N   0  3  0  0  0  0  0  0  0  0  0  0
    4.0000    0.0490    0.0000 N   0  0  0  0  0  0  0  0  0  0  0  0
    4.8660    1.5490    0.0000 N   0  0  0  0  0  0  0  0  0  0  0  0
    3.5000   -2.8170    0.0000 C   0  0  0  0  0  0  0  0  0  0  0  0
    2.5000   -2.8170    0.0000 C   0  0  0  0  0  0  0  0  0  0  0  0
    4.0000   -3.6830    0.0000 C   0  0  0  0  0  0  0  0  0  0  0  0
    3.1340   -1.4510    0.0000 C   0  0  0  0  0  0  0  0  0  0  0  0
    4.8660   -1.4510    0.0000 C   0  0  0  0  0  0  0  0  0  0  0  0
    2.0000   -3.6830    0.0000 C   0  0  0  0  0  0  0  0  0  0  0  0
    3.5000   -4.5490    0.0000 C   0  0  0  0  0  0  0  0  0  0  0  0
    2.5000   -4.5490    0.0000 C   0  0  0  0  0  0  0  0  0  0  0  0
    4.8660   -0.4510    0.0000 C   0  0  0  0  0  0  0  0  0  0  0  0
    3.1340   -0.4510    0.0000 C   0  0  0  0  0  0  0  0  0  0  0  0
    4.0000    1.0490    0.0000 C   0  0  0  0  0  0  0  0  0  0  0  0
    4.8660    2.5490    0.0000 C   0  0  0  0  0  0  0  0  0  0  0  0
    5.7320    3.0490    0.0000 C   0  0  0  0  0  0  0  0  0  0  0  0
    4.0000    3.0490    0.0000 C   0  0  0  0  0  0  0  0  0  0  0  0
    5.7320    4.0490    0.0000 C   0  0  0  0  0  0  0  0  0  0  0  0
    6.5981    2.5490    0.0000 C   0  0  0  0  0  0  0  0  0  0  0  0
    4.0000    4.0490    0.0000 C   0  0  0  0  0  0  0  0  0  0  0  0
    4.8660    4.5490    0.0000 C   0  0  0  0  0  0  0  0  0  0  0  0
    3.1900   -2.2800    0.0000 H   0  0  0  0  0  0  0  0  0  0  0  0
    4.3100   -2.4879    0.0000 H   0  0  0  0  0  0  0  0  0  0  0  0
    2.6077   -2.2064    0.0000 H   0  0  0  0  0  0  0  0  0  0  0  0
    1.9174   -2.6049    0.0000 H   0  0  0  0  0  0  0  0  0  0  0  0
    4.4750   -4.0815    0.0000 H   0  0  0  0  0  0  0  0  0  0  0  0
    4.4750   -3.2845    0.0000 H   0  0  0  0  0  0  0  0  0  0  0  0
    5.0781   -2.0336    0.0000 H   0  0  0  0  0  0  0  0  0  0  0  0
    5.4766   -1.3433    0.0000 H   0  0  0  0  0  0  0  0  0  0  0  0
    2.5234   -1.3433    0.0000 H   0  0  0  0  0  0  0  0  0  0  0  0
    2.9219   -2.0336    0.0000 H   0  0  0  0  0  0  0  0  0  0  0  0
    1.5250   -3.2845    0.0000 H   0  0  0  0  0  0  0  0  0  0  0  0
    1.5250   -4.0815    0.0000 H   0  0  0  0  0  0  0  0  0  0  0  0
    3.3923   -5.1596    0.0000 H   0  0  0  0  0  0  0  0  0  0  0  0
    4.0826   -4.7611    0.0000 H   0  0  0  0  0  0  0  0  0  0  0  0
    1.9174   -4.7611    0.0000 H   0  0  0  0  0  0  0  0  0  0  0  0
    2.6077   -5.1596    0.0000 H   0  0  0  0  0  0  0  0  0  0  0  0
    5.4766   -0.5586    0.0000 H   0  0  0  0  0  0  0  0  0  0  0  0
    5.0781    0.1316    0.0000 H   0  0  0  0  0  0  0  0  0  0  0  0
    2.9219    0.1316    0.0000 H   0  0  0  0  0  0  0  0  0  0  0  0
    2.5234   -0.5586    0.0000 H   0  0  0  0  0  0  0  0  0  0  0  0
    5.4030    1.2390    0.0000 H   0  0  0  0  0  0  0  0  0  0  0  0
    3.4631    2.7390    0.0000 H   0  0  0  0  0  0  0  0  0  0  0  0
    6.2690    4.3590    0.0000 H   0  0  0  0  0  0  0  0  0  0  0  0
    6.2881    2.0121    0.0000 H   0  0  0  0  0  0  0  0  0  0  0  0
    7.1350    2.2390    0.0000 H   0  0  0  0  0  0  0  0  0  0  0  0
    6.9081    3.0860    0.0000 H   0  0  0  0  0  0  0  0  0  0  0  0
    4.8660    5.1690    0.0000 H   0  0  0  0  0  0  0  0  0  0  0  0
  1 22  1  0  0  0  0
  2 16  2  0  0  0  0
  3  6  1  0  0  0  0
  3  9  1  0  0  0  0
  3 10  1  0  0  0  0
  3 25  1  0  0  0  0
  4 14  1  0  0  0  0
  4 15  1  0  0  0  0
  4 16  1  0  0  0  0
  5 16  1  0  0  0  0
  5 17  1  0  0  0  0
  5 44  1  0  0  0  0
  6  7  1  0  0  0  0
  6  8  1  0  0  0  0
  6 24  1  0  0  0  0
  7 11  1  0  0  0  0
  7 26  1  0  0  0  0
  7 27  1  0  0  0  0
  8 12  1  0  0  0  0
  8 28  1  0  0  0  0
  8 29  1  0  0  0  0
  9 15  1  0  0  0  0
  9 32  1  0  0  0  0
  9 33  1  0  0  0  0
 10 14  1  0  0  0  0
 10 30  1  0  0  0  0
 10 31  1  0  0  0  0
 11 13  1  0  0  0  0
 11 34  1  0  0  0  0
 11 35  1  0  0  0  0
 12 13  1  0  0  0  0
 12 36  1  0  0  0  0
 12 37  1  0  0  0  0
 13 38  1  0  0  0  0
 13 39  1  0  0  0  0
 14 40  1  0  0  0  0
 14 41  1  0  0  0  0
 15 42  1  0  0  0  0
 15 43  1  0  0  0  0
 17 18  2  0  0  0  0
 17 19  1  0  0  0  0
 18 20  1  0  0  0  0
 18 21  1  0  0  0  0
 19 22  2  0  0  0  0
 19 45  1  0  0  0  0
 20 23  2  0  0  0  0
 20 46  1  0  0  0  0
 21 47  1  0  0  0  0
 21 48  1  0  0  0  0
 21 49  1  0  0  0  0
 22 23  1  0  0  0  0
 23 50  1  0  0  0  0
M  CHG  1   3   1
M  END
> <PUBCHEM_COMPOUND_CID>
27518167

> <PUBCHEM_COMPOUND_CANONICALIZED>
1

> <PUBCHEM_CACTVS_COMPLEXITY>
392

> <PUBCHEM_CACTVS_HBOND_ACCEPTOR>
1

> <PUBCHEM_CACTVS_HBOND_DONOR>
2

> <PUBCHEM_CACTVS_ROTATABLE_BOND>
2

> <PUBCHEM_CACTVS_SUBSKEYS>
AAADceB7IAAEAAAAAAAAAAAAAAAAAAAAAAA8YIAAAAAAAAABAAAAHgIQAAAADCrBGCQzwIPAAACIAiRCUACCAAAhBwAIiIAIZoiIYCLBk5GUIAholgLIyCcQgAAOBAAAAAICAAAIAAAABAQAAAAAAAAAAA==

> <PUBCHEM_IUPAC_OPENEYE_NAME>
N-(5-chloro-2-methyl-phenyl)-4-cyclohexyl-piperazin-4-ium-1-carboxamide

> <PUBCHEM_IUPAC_CAS_NAME>
N-(5-chloro-2-methylphenyl)-4-cyclohexyl-1-piperazin-4-iumcarboxamide

> <PUBCHEM_IUPAC_NAME>
N-(5-chloro-2-methylphenyl)-4-cyclohexylpiperazin-4-ium-1-carboxamide

> <PUBCHEM_IUPAC_SYSTEMATIC_NAME>
N-(5-chloranyl-2-methyl-phenyl)-4-cyclohexyl-piperazin-4-ium-1-carboxamide

> <PUBCHEM_IUPAC_TRADITIONAL_NAME>
N-(5-chloro-2-methyl-phenyl)-4-cyclohexyl-piperazin-4-ium-1-carboxamide

> <PUBCHEM_IUPAC_INCHI>
InChI=1S/C18H26ClN3O/c1-14-7-8-15(19)13-17(14)20-18(23)22-11-9-21(10-12-22)16-5-3-2-4-6-16/h7-8,13,16H,2-6,9-12H2,1H3,(H,20,23)/p+1

> <PUBCHEM_IUPAC_INCHIKEY>
YAEMMARRCSDQQO-UHFFFAOYSA-O

> <PUBCHEM_XLOGP3>
3.5

> <PUBCHEM_EXACT_MASS>
336.184265

> <PUBCHEM_MOLECULAR_FORMULA>
C18H27ClN3O+

> <PUBCHEM_MOLECULAR_WEIGHT>
336.87948

> <PUBCHEM_OPENEYE_CAN_SMILES>
CC1=C(C=C(C=C1)Cl)NC(=O)N2CC[NH+](CC2)C3CCCCC3

> <PUBCHEM_OPENEYE_ISO_SMILES>
CC1=C(C=C(C=C1)Cl)NC(=O)N2CC[NH+](CC2)C3CCCCC3

> <PUBCHEM_CACTVS_TPSA>
36.8

> <PUBCHEM_MONOISOTOPIC_WEIGHT>
336.184265

> <PUBCHEM_TOTAL_CHARGE>
1

> <PUBCHEM_HEAVY_ATOM_COUNT>
23

> <PUBCHEM_ATOM_DEF_STEREO_COUNT>
0

> <PUBCHEM_ATOM_UDEF_STEREO_COUNT>
0

> <PUBCHEM_BOND_DEF_STEREO_COUNT>
0

> <PUBCHEM_BOND_UDEF_STEREO_COUNT>
0

> <PUBCHEM_ISOTOPIC_ATOM_COUNT>
0

> <PUBCHEM_COMPONENT_COUNT>
1

> <PUBCHEM_CACTVS_TAUTO_COUNT>
2

> <PUBCHEM_COORDINATE_TYPE>
1
5
255

> <PUBCHEM_BONDANNOTATIONS>
17  18  8
17  19  8
18  20  8
19  22  8
20  23  8
22  23  8

$$$$
27519515
  -OEChem-12041211322D

 42 44  0     0  0  0  0  0  0999 V2000
    5.3147    4.8716    0.0000 Br  0  0  0  0  0  0  0  0  0  0  0  0
    6.1808    0.3716    0.0000 O   0  0  0  0  0  0  0  0  0  0  0  0
    3.5827   -4.1284    0.0000 N   0  3  0  0  0  0  0  0  0  0  0  0
    4.4487    0.3716    0.0000 N   0  0  0  0  0  0  0  0  0  0  0  0
    3.0827   -3.2624    0.0000 C   0  0  0  0  0  0  0  0  0  0  0  0
    2.9136   -4.8716    0.0000 C   0  0  0  0  0  0  0  0  0  0  0  0
    2.1045   -3.4703    0.0000 C   0  0  0  0  0  0  0  0  0  0  0  0
    2.0000   -4.4648    0.0000 C   0  0  0  0  0  0  0  0  0  0  0  0
    4.4487   -3.6284    0.0000 C   0  0  0  0  0  0  0  0  0  0  0  0
    4.4487   -2.6284    0.0000 C   0  0  0  0  0  0  0  0  0  0  0  0
    3.5827   -2.1284    0.0000 C   0  0  0  0  0  0  0  0  0  0  0  0
    5.3147   -2.1284    0.0000 C   0  0  0  0  0  0  0  0  0  0  0  0
    3.5827   -1.1284    0.0000 C   0  0  0  0  0  0  0  0  0  0  0  0
    5.3147   -1.1284    0.0000 C   0  0  0  0  0  0  0  0  0  0  0  0
    4.4487   -0.6284    0.0000 C   0  0  0  0  0  0  0  0  0  0  0  0
    5.3147    0.8716    0.0000 C   0  0  0  0  0  0  0  0  0  0  0  0
    5.3147    1.8716    0.0000 C   0  0  0  0  0  0  0  0  0  0  0  0
    4.4487    2.3716    0.0000 C   0  0  0  0  0  0  0  0  0  0  0  0
    6.1808    2.3716    0.0000 C   0  0  0  0  0  0  0  0  0  0  0  0
    4.4487    3.3716    0.0000 C   0  0  0  0  0  0  0  0  0  0  0  0
    6.1808    3.3716    0.0000 C   0  0  0  0  0  0  0  0  0  0  0  0
    5.3147    3.8716    0.0000 C   0  0  0  0  0  0  0  0  0  0  0  0
    4.3258   -4.7976    0.0000 H   0  0  0  0  0  0  0  0  0  0  0  0
    3.6491   -3.0102    0.0000 H   0  0  0  0  0  0  0  0  0  0  0  0
    2.8911   -2.6728    0.0000 H   0  0  0  0  0  0  0  0  0  0  0  0
    2.6035   -5.4085    0.0000 H   0  0  0  0  0  0  0  0  0  0  0  0
    3.4151   -5.2360    0.0000 H   0  0  0  0  0  0  0  0  0  0  0  0
    2.0397   -2.8537    0.0000 H   0  0  0  0  0  0  0  0  0  0  0  0
    1.4845   -3.4703    0.0000 H   0  0  0  0  0  0  0  0  0  0  0  0
    1.3936   -4.3359    0.0000 H   0  0  0  0  0  0  0  0  0  0  0  0
    1.8084   -5.0545    0.0000 H   0  0  0  0  0  0  0  0  0  0  0  0
    4.6608   -4.2110    0.0000 H   0  0  0  0  0  0  0  0  0  0  0  0
    5.0593   -3.5208    0.0000 H   0  0  0  0  0  0  0  0  0  0  0  0
    3.0457   -2.4384    0.0000 H   0  0  0  0  0  0  0  0  0  0  0  0
    5.8517   -2.4384    0.0000 H   0  0  0  0  0  0  0  0  0  0  0  0
    3.0457   -0.8184    0.0000 H   0  0  0  0  0  0  0  0  0  0  0  0
    5.8517   -0.8184    0.0000 H   0  0  0  0  0  0  0  0  0  0  0  0
    3.9118    0.6816    0.0000 H   0  0  0  0  0  0  0  0  0  0  0  0
    3.9118    2.0616    0.0000 H   0  0  0  0  0  0  0  0  0  0  0  0
    6.7177    2.0616    0.0000 H   0  0  0  0  0  0  0  0  0  0  0  0
    3.9118    3.6816    0.0000 H   0  0  0  0  0  0  0  0  0  0  0  0
    6.7177    3.6816    0.0000 H   0  0  0  0  0  0  0  0  0  0  0  0
  1 22  1  0  0  0  0
  2 16  2  0  0  0  0
  3  5  1  0  0  0  0
  3  6  1  0  0  0  0
  3  9  1  0  0  0  0
  3 23  1  0  0  0  0
  4 15  1  0  0  0  0
  4 16  1  0  0  0  0
  4 38  1  0  0  0  0
  5  7  1  0  0  0  0
  5 24  1  0  0  0  0
  5 25  1  0  0  0  0
  6  8  1  0  0  0  0
  6 26  1  0  0  0  0
  6 27  1  0  0  0  0
  7  8  1  0  0  0  0
  7 28  1  0  0  0  0
  7 29  1  0  0  0  0
  8 30  1  0  0  0  0
  8 31  1  0  0  0  0
  9 10  1  0  0  0  0
  9 32  1  0  0  0  0
  9 33  1  0  0  0  0
 10 11  2  0  0  0  0
 10 12  1  0  0  0  0
 11 13  1  0  0  0  0
 11 34  1  0  0  0  0
 12 14  2  0  0  0  0
 12 35  1  0  0  0  0
 13 15  2  0  0  0  0
 13 36  1  0  0  0  0
 14 15  1  0  0  0  0
 14 37  1  0  0  0  0
 16 17  1  0  0  0  0
 17 18  2  0  0  0  0
 17 19  1  0  0  0  0
 18 20  1  0  0  0  0
 18 39  1  0  0  0  0
 19 21  2  0  0  0  0
 19 40  1  0  0  0  0
 20 22  2  0  0  0  0
 20 41  1  0  0  0  0
 21 22  1  0  0  0  0
 21 42  1  0  0  0  0
M  CHG  1   3   1
M  END
> <PUBCHEM_COMPOUND_CID>
27519515

> <PUBCHEM_COMPOUND_CANONICALIZED>
1

> <PUBCHEM_CACTVS_COMPLEXITY>
354

> <PUBCHEM_CACTVS_HBOND_ACCEPTOR>
1

> <PUBCHEM_CACTVS_HBOND_DONOR>
2

> <PUBCHEM_CACTVS_ROTATABLE_BOND>
4

> <PUBCHEM_CACTVS_SUBSKEYS>
AAADceB7IAAAEAAAAAAAAAAAAAAAAWAAAAAwYAAAAAAAAAABQAAAHgBQAAABrAjBmAQwwIPAAACIAiVSUACCAAAlAgQIiIEIZOgIIDLAlZGEIQhglADIy5cYiACOCgAAAAAAAAAUAAAAAAAAAAAAAAAAAA==

> <PUBCHEM_IUPAC_OPENEYE_NAME>
4-bromo-N-[4-(pyrrolidin-1-ium-1-ylmethyl)phenyl]benzamide

> <PUBCHEM_IUPAC_CAS_NAME>
4-bromo-N-[4-(1-pyrrolidin-1-iumylmethyl)phenyl]benzamide

> <PUBCHEM_IUPAC_NAME>
4-bromo-N-[4-(pyrrolidin-1-ium-1-ylmethyl)phenyl]benzamide

> <PUBCHEM_IUPAC_SYSTEMATIC_NAME>
4-bromanyl-N-[4-(pyrrolidin-1-ium-1-ylmethyl)phenyl]benzamide

> <PUBCHEM_IUPAC_TRADITIONAL_NAME>
4-bromo-N-[4-(pyrrolidin-1-ium-1-ylmethyl)phenyl]benzamide

> <PUBCHEM_IUPAC_INCHI>
InChI=1S/C18H19BrN2O/c19-16-7-5-15(6-8-16)18(22)20-17-9-3-14(4-10-17)13-21-11-1-2-12-21/h3-10H,1-2,11-13H2,(H,20,22)/p+1

> <PUBCHEM_IUPAC_INCHIKEY>
OFHMWSRMXAHTHC-UHFFFAOYSA-O

> <PUBCHEM_XLOGP3>
3.1

> <PUBCHEM_EXACT_MASS>
359.0759

> <PUBCHEM_MOLECULAR_FORMULA>
C18H20BrN2O+

> <PUBCHEM_MOLECULAR_WEIGHT>
360.2682

> <PUBCHEM_OPENEYE_CAN_SMILES>
C1CC[NH+](C1)CC2=CC=C(C=C2)NC(=O)C3=CC=C(C=C3)Br

> <PUBCHEM_OPENEYE_ISO_SMILES>
C1CC[NH+](C1)CC2=CC=C(C=C2)NC(=O)C3=CC=C(C=C3)Br

> <PUBCHEM_CACTVS_TPSA>
33.5

> <PUBCHEM_MONOISOTOPIC_WEIGHT>
359.0759

> <PUBCHEM_TOTAL_CHARGE>
1

> <PUBCHEM_HEAVY_ATOM_COUNT>
22

> <PUBCHEM_ATOM_DEF_STEREO_COUNT>
0

> <PUBCHEM_ATOM_UDEF_STEREO_COUNT>
0

> <PUBCHEM_BOND_DEF_STEREO_COUNT>
0

> <PUBCHEM_BOND_UDEF_STEREO_COUNT>
0

> <PUBCHEM_ISOTOPIC_ATOM_COUNT>
0

> <PUBCHEM_COMPONENT_COUNT>
1

> <PUBCHEM_CACTVS_TAUTO_COUNT>
2

> <PUBCHEM_COORDINATE_TYPE>
1
5
255

> <PUBCHEM_BONDANNOTATIONS>
10  11  8
10  12  8
11  13  8
12  14  8
13  15  8
14  15  8
17  18  8
17  19  8
18  20  8
19  21  8
20  22  8
21  22  8

$$$$
