29301215
  -OEChem-12041211392D

 39 41  0     0  0  0  0  0  0999 V2000
    5.4641   -0.9827    0.0000 N   0  0  0  0  0  0  0  0  0  0  0  0
    6.3301   -1.4827    0.0000 C   0  0  0  0  0  0  0  0  0  0  0  0
    7.1962   -0.9827    0.0000 C   0  0  0  0  0  0  0  0  0  0  0  0
    4.5981   -1.4827    0.0000 C   0  0  0  0  0  0  0  0  0  0  0  0
    8.9282   -0.9827    0.0000 C   0  0  0  0  0  0  0  0  0  0  0  0
    8.0622   -1.4827    0.0000 C   0  0  0  0  0  0  0  0  0  0  0  0
    3.7320   -0.9827    0.0000 C   0  0  0  0  0  0  0  0  0  0  0  0
    8.9282    0.0173    0.0000 C   0  0  0  0  0  0  0  0  0  0  0  0
    7.1962    0.0173    0.0000 C   0  0  0  0  0  0  0  0  0  0  0  0
    8.0622    0.5173    0.0000 C   0  0  0  0  0  0  0  0  0  0  0  0
    3.7320    0.0173    0.0000 C   0  0  0  0  0  0  0  0  0  0  0  0
    9.8222   -1.5173    0.0000 C   0  0  0  0  0  0  0  0  0  0  0  0
    2.8660    0.5173    0.0000 C   0  0  0  0  0  0  0  0  0  0  0  0
    2.8660   -1.4827    0.0000 C   0  0  0  0  0  0  0  0  0  0  0  0
    9.8222    0.5520    0.0000 C   0  0  0  0  0  0  0  0  0  0  0  0
    2.0000    0.0173    0.0000 C   0  0  0  0  0  0  0  0  0  0  0  0
    2.0000   -0.9827    0.0000 C   0  0  0  0  0  0  0  0  0  0  0  0
   10.7282   -1.0035    0.0000 C   0  0  0  0  0  0  0  0  0  0  0  0
   10.7282    0.0381    0.0000 C   0  0  0  0  0  0  0  0  0  0  0  0
    2.8660    1.5173    0.0000 C   0  0  0  0  0  0  0  0  0  0  0  0
    5.9316   -1.9576    0.0000 H   0  0  0  0  0  0  0  0  0  0  0  0
    6.7287   -1.9576    0.0000 H   0  0  0  0  0  0  0  0  0  0  0  0
    4.1996   -1.9576    0.0000 H   0  0  0  0  0  0  0  0  0  0  0  0
    4.9966   -1.9576    0.0000 H   0  0  0  0  0  0  0  0  0  0  0  0
    5.4641   -0.3627    0.0000 H   0  0  0  0  0  0  0  0  0  0  0  0
    8.0622   -2.1027    0.0000 H   0  0  0  0  0  0  0  0  0  0  0  0
    6.6592    0.3273    0.0000 H   0  0  0  0  0  0  0  0  0  0  0  0
    8.0622    1.1373    0.0000 H   0  0  0  0  0  0  0  0  0  0  0  0
    4.2690    0.3273    0.0000 H   0  0  0  0  0  0  0  0  0  0  0  0
    9.8150   -2.1373    0.0000 H   0  0  0  0  0  0  0  0  0  0  0  0
    2.8660   -2.1027    0.0000 H   0  0  0  0  0  0  0  0  0  0  0  0
    9.8150    1.1720    0.0000 H   0  0  0  0  0  0  0  0  0  0  0  0
    1.4631    0.3273    0.0000 H   0  0  0  0  0  0  0  0  0  0  0  0
    1.4631   -1.2927    0.0000 H   0  0  0  0  0  0  0  0  0  0  0  0
   11.2639   -1.3156    0.0000 H   0  0  0  0  0  0  0  0  0  0  0  0
   11.2639    0.3502    0.0000 H   0  0  0  0  0  0  0  0  0  0  0  0
    3.4860    1.5173    0.0000 H   0  0  0  0  0  0  0  0  0  0  0  0
    2.8660    2.1373    0.0000 H   0  0  0  0  0  0  0  0  0  0  0  0
    2.2460    1.5173    0.0000 H   0  0  0  0  0  0  0  0  0  0  0  0
  1  2  1  0  0  0  0
  1  4  1  0  0  0  0
  1 25  1  0  0  0  0
  2  3  1  0  0  0  0
  2 21  1  0  0  0  0
  2 22  1  0  0  0  0
  3  6  2  0  0  0  0
  3  9  1  0  0  0  0
  4  7  1  0  0  0  0
  4 23  1  0  0  0  0
  4 24  1  0  0  0  0
  5  6  1  0  0  0  0
  5  8  1  0  0  0  0
  5 12  2  0  0  0  0
  6 26  1  0  0  0  0
  7 11  1  0  0  0  0
  7 14  2  0  0  0  0
  8 10  1  0  0  0  0
  8 15  2  0  0  0  0
  9 10  2  0  0  0  0
  9 27  1  0  0  0  0
 10 28  1  0  0  0  0
 11 13  2  0  0  0  0
 11 29  1  0  0  0  0
 12 18  1  0  0  0  0
 12 30  1  0  0  0  0
 13 16  1  0  0  0  0
 13 20  1  0  0  0  0
 14 17  1  0  0  0  0
 14 31  1  0  0  0  0
 15 19  1  0  0  0  0
 15 32  1  0  0  0  0
 16 17  2  0  0  0  0
 16 33  1  0  0  0  0
 17 34  1  0  0  0  0
 18 19  2  0  0  0  0
 18 35  1  0  0  0  0
 19 36  1  0  0  0  0
 20 37  1  0  0  0  0
 20 38  1  0  0  0  0
 20 39  1  0  0  0  0
M  END
> <PUBCHEM_COMPOUND_CID>
29301215

> <PUBCHEM_COMPOUND_CANONICALIZED>
1

> <PUBCHEM_CACTVS_COMPLEXITY>
288

> <PUBCHEM_CACTVS_HBOND_ACCEPTOR>
1

> <PUBCHEM_CACTVS_HBOND_DONOR>
1

> <PUBCHEM_CACTVS_ROTATABLE_BOND>
4

> <PUBCHEM_CACTVS_SUBSKEYS>
AAADceB6AAAAAAAAAAAAAAAAAAAAAAAAAAAwYMAAAAAAAADBVAAAHAAQAAAADADBGAQyAMLAAACAAiBCAACCAAAgAAAIiIAIBIgIICKAkRGEIAhggACIiAcQgMAOwAACAAAQAACAAAQAACAAAAAAAAAAAA==

> <PUBCHEM_IUPAC_OPENEYE_NAME>
N-(m-tolylmethyl)-1-(2-naphthyl)methanamine

> <PUBCHEM_IUPAC_CAS_NAME>
N-[(3-methylphenyl)methyl]-1-(2-naphthalenyl)methanamine

> <PUBCHEM_IUPAC_NAME>
N-[(3-methylphenyl)methyl]-1-naphthalen-2-ylmethanamine

> <PUBCHEM_IUPAC_SYSTEMATIC_NAME>
N-[(3-methylphenyl)methyl]-1-naphthalen-2-yl-methanamine

> <PUBCHEM_IUPAC_TRADITIONAL_NAME>
(3-methylbenzyl)-(2-naphthylmethyl)amine

> <PUBCHEM_IUPAC_INCHI>
InChI=1S/C19H19N/c1-15-5-4-6-16(11-15)13-20-14-17-9-10-18-7-2-3-8-19(18)12-17/h2-12,20H,13-14H2,1H3

> <PUBCHEM_IUPAC_INCHIKEY>
RSVJOJXSACALAX-UHFFFAOYSA-N

> <PUBCHEM_XLOGP3>
4.3

> <PUBCHEM_EXACT_MASS>
261.15175

> <PUBCHEM_MOLECULAR_FORMULA>
C19H19N

> <PUBCHEM_MOLECULAR_WEIGHT>
261.36086

> <PUBCHEM_OPENEYE_CAN_SMILES>
CC1=CC(=CC=C1)CNCC2=CC3=CC=CC=C3C=C2

> <PUBCHEM_OPENEYE_ISO_SMILES>
CC1=CC(=CC=C1)CNCC2=CC3=CC=CC=C3C=C2

> <PUBCHEM_CACTVS_TPSA>
12

> <PUBCHEM_MONOISOTOPIC_WEIGHT>
261.15175

> <PUBCHEM_TOTAL_CHARGE>
0

> <PUBCHEM_HEAVY_ATOM_COUNT>
20

> <PUBCHEM_ATOM_DEF_STEREO_COUNT>
0

> <PUBCHEM_ATOM_UDEF_STEREO_COUNT>
0

> <PUBCHEM_BOND_DEF_STEREO_COUNT>
0

> <PUBCHEM_BOND_UDEF_STEREO_COUNT>
0

> <PUBCHEM_ISOTOPIC_ATOM_COUNT>
0

> <PUBCHEM_COMPONENT_COUNT>
1

> <PUBCHEM_CACTVS_TAUTO_COUNT>
1

> <PUBCHEM_COORDINATE_TYPE>
1
5
255

> <PUBCHEM_BONDANNOTATIONS>
11  13  8
12  18  8
13  16  8
14  17  8
15  19  8
16  17  8
18  19  8
3  6  8
3  9  8
5  12  8
5  6  8
5  8  8
7  11  8
7  14  8
8  10  8
8  15  8
9  10  8

$$$$
29310435
  -OEChem-12041211392D

 26 26  0     0  0  0  0  0  0999 V2000
    4.5981    2.2315    0.0000 N   0  3  0  0  0  0  0  0  0  0  0  0
    2.8660    0.2315    0.0000 N   0  0  0  0  0  0  0  0  0  0  0  0
    3.7321    1.7315    0.0000 C   0  0  0  0  0  0  0  0  0  0  0  0
    3.7321    0.7315    0.0000 C   0  0  0  0  0  0  0  0  0  0  0  0
    2.8660   -0.7685    0.0000 C   0  0  0  0  0  0  0  0  0  0  0  0
    5.4641    2.7315    0.0000 C   0  0  0  0  0  0  0  0  0  0  0  0
    2.0000   -1.2685    0.0000 C   0  0  0  0  0  0  0  0  0  0  0  0
    3.7321   -1.2685    0.0000 C   0  0  0  0  0  0  0  0  0  0  0  0
    2.0000   -2.2685    0.0000 C   0  0  0  0  0  0  0  0  0  0  0  0
    3.7321   -2.2685    0.0000 C   0  0  0  0  0  0  0  0  0  0  0  0
    2.8660   -2.7685    0.0000 C   0  0  0  0  0  0  0  0  0  0  0  0
    3.5200    2.3141    0.0000 H   0  0  0  0  0  0  0  0  0  0  0  0
    3.1215    1.6239    0.0000 H   0  0  0  0  0  0  0  0  0  0  0  0
    3.9441    0.1489    0.0000 H   0  0  0  0  0  0  0  0  0  0  0  0
    4.3426    0.8392    0.0000 H   0  0  0  0  0  0  0  0  0  0  0  0
    4.2881    2.7685    0.0000 H   0  0  0  0  0  0  0  0  0  0  0  0
    4.9081    1.6946    0.0000 H   0  0  0  0  0  0  0  0  0  0  0  0
    2.3291    0.5415    0.0000 H   0  0  0  0  0  0  0  0  0  0  0  0
    5.7741    2.1946    0.0000 H   0  0  0  0  0  0  0  0  0  0  0  0
    6.0010    3.0415    0.0000 H   0  0  0  0  0  0  0  0  0  0  0  0
    5.1541    3.2685    0.0000 H   0  0  0  0  0  0  0  0  0  0  0  0
    1.4631   -0.9585    0.0000 H   0  0  0  0  0  0  0  0  0  0  0  0
    4.2690   -0.9585    0.0000 H   0  0  0  0  0  0  0  0  0  0  0  0
    1.4631   -2.5785    0.0000 H   0  0  0  0  0  0  0  0  0  0  0  0
    4.2690   -2.5785    0.0000 H   0  0  0  0  0  0  0  0  0  0  0  0
    2.8660   -3.3885    0.0000 H   0  0  0  0  0  0  0  0  0  0  0  0
  1  3  1  0  0  0  0
  1  6  1  0  0  0  0
  1 16  1  0  0  0  0
  1 17  1  0  0  0  0
  2  4  1  0  0  0  0
  2  5  1  0  0  0  0
  2 18  1  0  0  0  0
  3  4  1  0  0  0  0
  3 12  1  0  0  0  0
  3 13  1  0  0  0  0
  4 14  1  0  0  0  0
  4 15  1  0  0  0  0
  5  7  2  0  0  0  0
  5  8  1  0  0  0  0
  6 19  1  0  0  0  0
  6 20  1  0  0  0  0
  6 21  1  0  0  0  0
  7  9  1  0  0  0  0
  7 22  1  0  0  0  0
  8 10  2  0  0  0  0
  8 23  1  0  0  0  0
  9 11  2  0  0  0  0
  9 24  1  0  0  0  0
 10 11  1  0  0  0  0
 10 25  1  0  0  0  0
 11 26  1  0  0  0  0
M  CHG  1   1   1
M  END
> <PUBCHEM_COMPOUND_CID>
29310435

> <PUBCHEM_COMPOUND_CANONICALIZED>
1

> <PUBCHEM_CACTVS_COMPLEXITY>
87.6

> <PUBCHEM_CACTVS_HBOND_ACCEPTOR>
1

> <PUBCHEM_CACTVS_HBOND_DONOR>
2

> <PUBCHEM_CACTVS_ROTATABLE_BOND>
4

> <PUBCHEM_CACTVS_SUBSKEYS>
AAADccBzAAAAAAAAAAAAAAAAAAAAAAAAAAAwAAAAAAAAAAABAAAAHAAQAAAACAjBEAQywILAAACAACRCQACCAAAhAgAIiIAIZIgIYCLAkZGUIAhgkADIyAcQAAAAAAAAAAAAAAAAAAAAAAAAAAAAAAAAAA==

> <PUBCHEM_IUPAC_OPENEYE_NAME>
2-anilinoethyl(methyl)ammonium

> <PUBCHEM_IUPAC_CAS_NAME>
2-anilinoethyl(methyl)ammonium

> <PUBCHEM_IUPAC_NAME>
2-anilinoethyl(methyl)azanium

> <PUBCHEM_IUPAC_SYSTEMATIC_NAME>
methyl(2-phenylazanylethyl)azanium

> <PUBCHEM_IUPAC_TRADITIONAL_NAME>
2-anilinoethyl(methyl)ammonium

> <PUBCHEM_IUPAC_INCHI>
InChI=1S/C9H14N2/c1-10-7-8-11-9-5-3-2-4-6-9/h2-6,10-11H,7-8H2,1H3/p+1

> <PUBCHEM_IUPAC_INCHIKEY>
COCFQAQFBIRRKQ-UHFFFAOYSA-O

> <PUBCHEM_XLOGP3>
1.1

> <PUBCHEM_EXACT_MASS>
151.123523

> <PUBCHEM_MOLECULAR_FORMULA>
C9H15N2+

> <PUBCHEM_MOLECULAR_WEIGHT>
151.2288

> <PUBCHEM_OPENEYE_CAN_SMILES>
C[NH2+]CCNC1=CC=CC=C1

> <PUBCHEM_OPENEYE_ISO_SMILES>
C[NH2+]CCNC1=CC=CC=C1

> <PUBCHEM_CACTVS_TPSA>
28.6

> <PUBCHEM_MONOISOTOPIC_WEIGHT>
151.123523

> <PUBCHEM_TOTAL_CHARGE>
1

> <PUBCHEM_HEAVY_ATOM_COUNT>
11

> <PUBCHEM_ATOM_DEF_STEREO_COUNT>
0

> <PUBCHEM_ATOM_UDEF_STEREO_COUNT>
0

> <PUBCHEM_BOND_DEF_STEREO_COUNT>
0

> <PUBCHEM_BOND_UDEF_STEREO_COUNT>
0

> <PUBCHEM_ISOTOPIC_ATOM_COUNT>
0

> <PUBCHEM_COMPONENT_COUNT>
1

> <PUBCHEM_CACTVS_TAUTO_COUNT>
1

> <PUBCHEM_COORDINATE_TYPE>
1
5
255

> <PUBCHEM_BONDANNOTATIONS>
10  11  8
5  7  8
5  8  8
7  9  8
8  10  8
9  11  8

$$$$
