46555898
  -OEChem-12041212082D

 39 40  0     0  0  0  0  0  0999 V2000
    3.0000    1.2500    0.0000 S   0  0  0  0  0  0  0  0  0  0  0  0
    3.0000   -2.7500    0.0000 S   0  0  0  0  0  0  0  0  0  0  0  0
    6.4641    0.2500    0.0000 F   0  0  0  0  0  0  0  0  0  0  0  0
    6.0981    1.6160    0.0000 F   0  0  0  0  0  0  0  0  0  0  0  0
    5.0981   -0.1160    0.0000 F   0  0  0  0  0  0  0  0  0  0  0  0
    4.0000    1.2500    0.0000 O   0  0  0  0  0  0  0  0  0  0  0  0
    2.0000    1.2500    0.0000 O   0  0  0  0  0  0  0  0  0  0  0  0
    4.7320    1.2500    0.0000 O   0  0  0  0  0  0  0  0  0  0  0  0
    2.0000   -2.7500    0.0000 O   0  0  0  0  0  0  0  0  0  0  0  0
    4.0000   -2.7500    0.0000 O   0  0  0  0  0  0  0  0  0  0  0  0
    3.0000    2.2500    0.0000 N   0  0  0  0  0  0  0  0  0  0  0  0
    3.0000   -3.7500    0.0000 N   0  0  0  0  0  0  0  0  0  0  0  0
    3.0000    0.2500    0.0000 C   0  0  0  0  0  0  0  0  0  0  0  0
    3.0000   -1.7500    0.0000 C   0  0  0  0  0  0  0  0  0  0  0  0
    2.1340   -0.2500    0.0000 C   0  0  0  0  0  0  0  0  0  0  0  0
    3.8660   -0.2500    0.0000 C   0  0  0  0  0  0  0  0  0  0  0  0
    2.1340   -1.2500    0.0000 C   0  0  0  0  0  0  0  0  0  0  0  0
    3.8660   -1.2500    0.0000 C   0  0  0  0  0  0  0  0  0  0  0  0
    3.8660    2.7500    0.0000 C   0  0  0  0  0  0  0  0  0  0  0  0
    4.7320    2.2500    0.0000 C   0  0  0  0  0  0  0  0  0  0  0  0
    3.8660    3.7500    0.0000 C   0  0  0  0  0  0  0  0  0  0  0  0
    5.5981    2.7500    0.0000 C   0  0  0  0  0  0  0  0  0  0  0  0
    4.7320    4.2500    0.0000 C   0  0  0  0  0  0  0  0  0  0  0  0
    5.5981    3.7500    0.0000 C   0  0  0  0  0  0  0  0  0  0  0  0
    2.1340   -4.2500    0.0000 C   0  0  0  0  0  0  0  0  0  0  0  0
    5.5981    0.7500    0.0000 C   0  0  0  0  0  0  0  0  0  0  0  0
    1.5970    0.0600    0.0000 H   0  0  0  0  0  0  0  0  0  0  0  0
    4.4030    0.0600    0.0000 H   0  0  0  0  0  0  0  0  0  0  0  0
    2.4631    2.5600    0.0000 H   0  0  0  0  0  0  0  0  0  0  0  0
    1.5970   -1.5600    0.0000 H   0  0  0  0  0  0  0  0  0  0  0  0
    4.4030   -1.5600    0.0000 H   0  0  0  0  0  0  0  0  0  0  0  0
    3.3291    4.0600    0.0000 H   0  0  0  0  0  0  0  0  0  0  0  0
    3.5369   -4.0600    0.0000 H   0  0  0  0  0  0  0  0  0  0  0  0
    6.1350    2.4400    0.0000 H   0  0  0  0  0  0  0  0  0  0  0  0
    4.7320    4.8700    0.0000 H   0  0  0  0  0  0  0  0  0  0  0  0
    6.1350    4.0600    0.0000 H   0  0  0  0  0  0  0  0  0  0  0  0
    1.8240   -3.7131    0.0000 H   0  0  0  0  0  0  0  0  0  0  0  0
    1.5970   -4.5600    0.0000 H   0  0  0  0  0  0  0  0  0  0  0  0
    2.4440   -4.7869    0.0000 H   0  0  0  0  0  0  0  0  0  0  0  0
  1  6  2  0  0  0  0
  1  7  2  0  0  0  0
  1 11  1  0  0  0  0
  1 13  1  0  0  0  0
  2  9  2  0  0  0  0
  2 10  2  0  0  0  0
  2 12  1  0  0  0  0
  2 14  1  0  0  0  0
  3 26  1  0  0  0  0
  4 26  1  0  0  0  0
  5 26  1  0  0  0  0
  8 20  1  0  0  0  0
  8 26  1  0  0  0  0
 11 19  1  0  0  0  0
 11 29  1  0  0  0  0
 12 25  1  0  0  0  0
 12 33  1  0  0  0  0
 13 15  2  0  0  0  0
 13 16  1  0  0  0  0
 14 17  2  0  0  0  0
 14 18  1  0  0  0  0
 15 17  1  0  0  0  0
 15 27  1  0  0  0  0
 16 18  2  0  0  0  0
 16 28  1  0  0  0  0
 17 30  1  0  0  0  0
 18 31  1  0  0  0  0
 19 20  1  0  0  0  0
 19 21  2  0  0  0  0
 20 22  2  0  0  0  0
 21 23  1  0  0  0  0
 21 32  1  0  0  0  0
 22 24  1  0  0  0  0
 22 34  1  0  0  0  0
 23 24  2  0  0  0  0
 23 35  1  0  0  0  0
 24 36  1  0  0  0  0
 25 37  1  0  0  0  0
 25 38  1  0  0  0  0
 25 39  1  0  0  0  0
M  END
> <PUBCHEM_COMPOUND_CID>
46555898

> <PUBCHEM_COMPOUND_CANONICALIZED>
1

> <PUBCHEM_CACTVS_COMPLEXITY>
662

> <PUBCHEM_CACTVS_HBOND_ACCEPTOR>
10

> <PUBCHEM_CACTVS_HBOND_DONOR>
2

> <PUBCHEM_CACTVS_ROTATABLE_BOND>
6

> <PUBCHEM_CACTVS_SUBSKEYS>
AAADccBzOYBgAAAAAAAAAAAAAAAAAAAAAAAwYAAAAAAAAAABQAAAHwQQQAAACAyB0BQyx4BABAKAACRCQHDCCBAgIgAIiJgHbIgOJiKEsZuBMCBk0BEI6AeQQAAAAAgAAAAAEAAAEAAAAAAgAAAAAAAAAA==

> <PUBCHEM_IUPAC_OPENEYE_NAME>
N1-methyl-N4-[2-(trifluoromethoxy)phenyl]benzene-1,4-disulfonamide

> <PUBCHEM_IUPAC_CAS_NAME>
N1-methyl-N4-[2-(trifluoromethoxy)phenyl]benzene-1,4-disulfonamide

> <PUBCHEM_IUPAC_NAME>
1-N-methyl-4-N-[2-(trifluoromethoxy)phenyl]benzene-1,4-disulfonamide

> <PUBCHEM_IUPAC_SYSTEMATIC_NAME>
N1-methyl-N4-[2-(trifluoromethyloxy)phenyl]benzene-1,4-disulfonamide

> <PUBCHEM_IUPAC_TRADITIONAL_NAME>
N-methyl-N'-[2-(trifluoromethoxy)phenyl]benzene-1,4-disulfonamide

> <PUBCHEM_IUPAC_INCHI>
InChI=1S/C14H13F3N2O5S2/c1-18-25(20,21)10-6-8-11(9-7-10)26(22,23)19-12-4-2-3-5-13(12)24-14(15,16)17/h2-9,18-19H,1H3

> <PUBCHEM_IUPAC_INCHIKEY>
COQSNQDJNYJIHJ-UHFFFAOYSA-N

> <PUBCHEM_XLOGP3>
2.4

> <PUBCHEM_EXACT_MASS>
410.021798

> <PUBCHEM_MOLECULAR_FORMULA>
C14H13F3N2O5S2

> <PUBCHEM_MOLECULAR_WEIGHT>
410.38863

> <PUBCHEM_OPENEYE_CAN_SMILES>
CNS(=O)(=O)C1=CC=C(C=C1)S(=O)(=O)NC2=CC=CC=C2OC(F)(F)F

> <PUBCHEM_OPENEYE_ISO_SMILES>
CNS(=O)(=O)C1=CC=C(C=C1)S(=O)(=O)NC2=CC=CC=C2OC(F)(F)F

> <PUBCHEM_CACTVS_TPSA>
118

> <PUBCHEM_MONOISOTOPIC_WEIGHT>
410.021798

> <PUBCHEM_TOTAL_CHARGE>
0

> <PUBCHEM_HEAVY_ATOM_COUNT>
26

> <PUBCHEM_ATOM_DEF_STEREO_COUNT>
0

> <PUBCHEM_ATOM_UDEF_STEREO_COUNT>
0

> <PUBCHEM_BOND_DEF_STEREO_COUNT>
0

> <PUBCHEM_BOND_UDEF_STEREO_COUNT>
0

> <PUBCHEM_ISOTOPIC_ATOM_COUNT>
0

> <PUBCHEM_COMPONENT_COUNT>
1

> <PUBCHEM_CACTVS_TAUTO_COUNT>
1

> <PUBCHEM_COORDINATE_TYPE>
1
5
255

> <PUBCHEM_BONDANNOTATIONS>
13  15  8
13  16  8
14  17  8
14  18  8
15  17  8
16  18  8
19  20  8
19  21  8
20  22  8
21  23  8
22  24  8
23  24  8

$$$$
