6792381
  -OEChem-11301217012D

 45 47  0     0  0  0  0  0  0999 V2000
    4.5981    2.2500    0.0000 S   0  0  0  0  0  0  0  0  0  0  0  0
    5.5981    2.2500    0.0000 O   0  0  0  0  0  0  0  0  0  0  0  0
    3.5981    2.2500    0.0000 O   0  0  0  0  0  0  0  0  0  0  0  0
    2.0000   -3.2500    0.0000 O   0  0  0  0  0  0  0  0  0  0  0  0
    8.0622    5.2500    0.0000 O   0  0  0  0  0  0  0  0  0  0  0  0
    5.4641   -6.2500    0.0000 O   0  5  0  0  0  0  0  0  0  0  0  0
    6.3301   -4.7500    0.0000 O   0  0  0  0  0  0  0  0  0  0  0  0
    4.5981    3.2500    0.0000 N   0  0  0  0  0  0  0  0  0  0  0  0
    4.5981   -1.7500    0.0000 N   0  0  0  0  0  0  0  0  0  0  0  0
    5.4641    4.7500    0.0000 N   0  0  0  0  0  0  0  0  0  0  0  0
    5.4641   -5.2500    0.0000 N   0  3  0  0  0  0  0  0  0  0  0  0
    6.3301    5.2500    0.0000 N   0  0  0  0  0  0  0  0  0  0  0  0
    4.5981    1.2500    0.0000 C   0  0  0  0  0  0  0  0  0  0  0  0
    4.5981   -0.7500    0.0000 C   0  0  0  0  0  0  0  0  0  0  0  0
    3.7320    0.7500    0.0000 C   0  0  0  0  0  0  0  0  0  0  0  0
    5.4641    0.7500    0.0000 C   0  0  0  0  0  0  0  0  0  0  0  0
    3.7320   -0.2500    0.0000 C   0  0  0  0  0  0  0  0  0  0  0  0
    5.4641   -0.2500    0.0000 C   0  0  0  0  0  0  0  0  0  0  0  0
    3.7320   -3.2500    0.0000 C   0  0  0  0  0  0  0  0  0  0  0  0
    3.7320   -2.2500    0.0000 C   0  0  0  0  0  0  0  0  0  0  0  0
    5.4641    3.7500    0.0000 C   0  0  0  0  0  0  0  0  0  0  0  0
    4.5981   -3.7500    0.0000 C   0  0  0  0  0  0  0  0  0  0  0  0
    2.8660   -3.7500    0.0000 C   0  0  0  0  0  0  0  0  0  0  0  0
    4.5981   -4.7500    0.0000 C   0  0  0  0  0  0  0  0  0  0  0  0
    6.3301    3.2500    0.0000 C   0  0  0  0  0  0  0  0  0  0  0  0
    2.8660   -4.7500    0.0000 C   0  0  0  0  0  0  0  0  0  0  0  0
    3.7320   -5.2500    0.0000 C   0  0  0  0  0  0  0  0  0  0  0  0
    7.1962    3.7500    0.0000 C   0  0  0  0  0  0  0  0  0  0  0  0
    7.1962    4.7500    0.0000 C   0  0  0  0  0  0  0  0  0  0  0  0
    8.0622    6.2500    0.0000 C   0  0  0  0  0  0  0  0  0  0  0  0
    3.1951    1.0600    0.0000 H   0  0  0  0  0  0  0  0  0  0  0  0
    6.0010    1.0600    0.0000 H   0  0  0  0  0  0  0  0  0  0  0  0
    3.1951   -0.5600    0.0000 H   0  0  0  0  0  0  0  0  0  0  0  0
    6.0010   -0.5600    0.0000 H   0  0  0  0  0  0  0  0  0  0  0  0
    4.0611    3.5600    0.0000 H   0  0  0  0  0  0  0  0  0  0  0  0
    5.1350   -2.0600    0.0000 H   0  0  0  0  0  0  0  0  0  0  0  0
    3.1951   -1.9400    0.0000 H   0  0  0  0  0  0  0  0  0  0  0  0
    5.1350   -3.4400    0.0000 H   0  0  0  0  0  0  0  0  0  0  0  0
    6.3301    2.6300    0.0000 H   0  0  0  0  0  0  0  0  0  0  0  0
    2.3291   -5.0600    0.0000 H   0  0  0  0  0  0  0  0  0  0  0  0
    3.7320   -5.8700    0.0000 H   0  0  0  0  0  0  0  0  0  0  0  0
    7.7331    3.4400    0.0000 H   0  0  0  0  0  0  0  0  0  0  0  0
    8.6822    6.2500    0.0000 H   0  0  0  0  0  0  0  0  0  0  0  0
    8.0622    6.8700    0.0000 H   0  0  0  0  0  0  0  0  0  0  0  0
    7.4422    6.2500    0.0000 H   0  0  0  0  0  0  0  0  0  0  0  0
  1  2  2  0  0  0  0
  1  3  2  0  0  0  0
  1  8  1  0  0  0  0
  1 13  1  0  0  0  0
  4 23  2  0  0  0  0
  5 29  1  0  0  0  0
  5 30  1  0  0  0  0
  6 11  1  0  0  0  0
  7 11  2  0  0  0  0
  8 21  1  0  0  0  0
  8 35  1  0  0  0  0
  9 14  1  0  0  0  0
  9 20  1  0  0  0  0
  9 36  1  0  0  0  0
 10 12  1  0  0  0  0
 10 21  2  0  0  0  0
 11 24  1  0  0  0  0
 12 29  2  0  0  0  0
 13 15  2  0  0  0  0
 13 16  1  0  0  0  0
 14 17  2  0  0  0  0
 14 18  1  0  0  0  0
 15 17  1  0  0  0  0
 15 31  1  0  0  0  0
 16 18  2  0  0  0  0
 16 32  1  0  0  0  0
 17 33  1  0  0  0  0
 18 34  1  0  0  0  0
 19 20  2  3  0  0  0
 19 22  1  0  0  0  0
 19 23  1  0  0  0  0
 20 37  1  0  0  0  0
 21 25  1  0  0  0  0
 22 24  2  0  0  0  0
 22 38  1  0  0  0  0
 23 26  1  0  0  0  0
 24 27  1  0  0  0  0
 25 28  2  0  0  0  0
 25 39  1  0  0  0  0
 26 27  2  0  0  0  0
 26 40  1  0  0  0  0
 27 41  1  0  0  0  0
 28 29  1  0  0  0  0
 28 42  1  0  0  0  0
 30 43  1  0  0  0  0
 30 44  1  0  0  0  0
 30 45  1  0  0  0  0
M  CHG  2   6  -1  11   1
M  END
> <PUBCHEM_COMPOUND_CID>
6792381

> <PUBCHEM_COMPOUND_CANONICALIZED>
1

> <PUBCHEM_CACTVS_COMPLEXITY>
849

> <PUBCHEM_CACTVS_HBOND_ACCEPTOR>
10

> <PUBCHEM_CACTVS_HBOND_DONOR>
2

> <PUBCHEM_CACTVS_ROTATABLE_BOND>
6

> <PUBCHEM_CACTVS_SUBSKEYS>
AAADccB7uABAAAAAAAAAAAAAAAAAAAAAAAA8QIAAAAAAAAABwAAAHgQcQAAADAzB0gYz9ZLQRAKrAqZ2Y3DSDBIhIgA8mLk+bNgMJqLEsZuEsCh02BFI6ccwAAAAAAQAAAAAAAAACAAAAAAAAAAAAAAAAA==

> <PUBCHEM_IUPAC_OPENEYE_NAME>
N-(6-methoxypyridazin-3-yl)-4-[(3-nitro-6-oxo-cyclohexa-2,4-dien-1-ylidene)methylamino]benzenesulfonamide

> <PUBCHEM_IUPAC_CAS_NAME>
N-(6-methoxy-3-pyridazinyl)-4-[(3-nitro-6-oxo-1-cyclohexa-2,4-dienylidene)methylamino]benzenesulfonamide

> <PUBCHEM_IUPAC_NAME>
N-(6-methoxypyridazin-3-yl)-4-[(3-nitro-6-oxocyclohexa-2,4-dien-1-ylidene)methylamino]benzenesulfonamide

> <PUBCHEM_IUPAC_SYSTEMATIC_NAME>
N-(6-methoxypyridazin-3-yl)-4-[(3-nitro-6-oxidanylidene-cyclohexa-2,4-dien-1-ylidene)methylamino]benzenesulfonamide

> <PUBCHEM_IUPAC_TRADITIONAL_NAME>
4-[(6-keto-3-nitro-cyclohexa-2,4-dien-1-ylidene)methylamino]-N-(6-methoxypyridazin-3-yl)benzenesulfonamide

> <PUBCHEM_IUPAC_INCHI>
InChI=1S/C18H15N5O6S/c1-29-18-9-8-17(20-21-18)22-30(27,28)15-5-2-13(3-6-15)19-11-12-10-14(23(25)26)4-7-16(12)24/h2-11,19H,1H3,(H,20,22)

> <PUBCHEM_IUPAC_INCHIKEY>
RQGHMKGXSAGBRD-UHFFFAOYSA-N

> <PUBCHEM_XLOGP3>
1.5

> <PUBCHEM_EXACT_MASS>
429.074304

> <PUBCHEM_MOLECULAR_FORMULA>
C18H15N5O6S

> <PUBCHEM_MOLECULAR_WEIGHT>
429.4066

> <PUBCHEM_OPENEYE_CAN_SMILES>
COC1=NN=C(C=C1)NS(=O)(=O)C2=CC=C(C=C2)NC=C3C=C(C=CC3=O)[N+](=O)[O-]

> <PUBCHEM_OPENEYE_ISO_SMILES>
COC1=NN=C(C=C1)NS(=O)(=O)C2=CC=C(C=C2)NC=C3C=C(C=CC3=O)[N+](=O)[O-]

> <PUBCHEM_CACTVS_TPSA>
165

> <PUBCHEM_MONOISOTOPIC_WEIGHT>
429.074304

> <PUBCHEM_TOTAL_CHARGE>
0

> <PUBCHEM_HEAVY_ATOM_COUNT>
30

> <PUBCHEM_ATOM_DEF_STEREO_COUNT>
0

> <PUBCHEM_ATOM_UDEF_STEREO_COUNT>
0

> <PUBCHEM_BOND_DEF_STEREO_COUNT>
0

> <PUBCHEM_BOND_UDEF_STEREO_COUNT>
1

> <PUBCHEM_ISOTOPIC_ATOM_COUNT>
0

> <PUBCHEM_COMPONENT_COUNT>
1

> <PUBCHEM_CACTVS_TAUTO_COUNT>
8

> <PUBCHEM_COORDINATE_TYPE>
1
5
255

> <PUBCHEM_BONDANNOTATIONS>
10  12  8
10  21  8
12  29  8
13  15  8
13  16  8
14  17  8
14  18  8
15  17  8
16  18  8
19  20  1
21  25  8
25  28  8
28  29  8

$$$$
