32639911
  -OEChem-03221309342D

 26 26  0     0  0  0  0  0  0999 V2000
    3.8660    1.9815    0.0000 N   0  3  0  0  0  0  0  0  0  0  0  0
    3.8660   -1.0185    0.0000 N   0  0  0  0  0  0  0  0  0  0  0  0
    3.0000    0.4815    0.0000 C   0  0  0  0  0  0  0  0  0  0  0  0
    3.0000    1.4815    0.0000 C   0  0  0  0  0  0  0  0  0  0  0  0
    3.0000   -0.5185    0.0000 C   0  0  0  0  0  0  0  0  0  0  0  0
    4.0000    0.4815    0.0000 C   0  0  0  0  0  0  0  0  0  0  0  0
    2.0000    0.4815    0.0000 C   0  0  0  0  0  0  0  0  0  0  0  0
    2.1340   -1.0185    0.0000 C   0  0  0  0  0  0  0  0  0  0  0  0
    2.1340   -2.0185    0.0000 C   0  0  0  0  0  0  0  0  0  0  0  0
    3.8660   -2.0185    0.0000 C   0  0  0  0  0  0  0  0  0  0  0  0
    3.0000   -2.5185    0.0000 C   0  0  0  0  0  0  0  0  0  0  0  0
    2.7880    2.0641    0.0000 H   0  0  0  0  0  0  0  0  0  0  0  0
    2.3894    1.3739    0.0000 H   0  0  0  0  0  0  0  0  0  0  0  0
    2.0000    1.1015    0.0000 H   0  0  0  0  0  0  0  0  0  0  0  0
    1.3800    0.4815    0.0000 H   0  0  0  0  0  0  0  0  0  0  0  0
    2.0000   -0.1385    0.0000 H   0  0  0  0  0  0  0  0  0  0  0  0
    4.0000   -0.1385    0.0000 H   0  0  0  0  0  0  0  0  0  0  0  0
    4.6200    0.4815    0.0000 H   0  0  0  0  0  0  0  0  0  0  0  0
    4.0000    1.1015    0.0000 H   0  0  0  0  0  0  0  0  0  0  0  0
    4.4030    2.2915    0.0000 H   0  0  0  0  0  0  0  0  0  0  0  0
    3.5560    2.5185    0.0000 H   0  0  0  0  0  0  0  0  0  0  0  0
    4.1760    1.4446    0.0000 H   0  0  0  0  0  0  0  0  0  0  0  0
    1.5970   -0.7085    0.0000 H   0  0  0  0  0  0  0  0  0  0  0  0
    1.5970   -2.3285    0.0000 H   0  0  0  0  0  0  0  0  0  0  0  0
    4.4030   -2.3285    0.0000 H   0  0  0  0  0  0  0  0  0  0  0  0
    3.0000   -3.1385    0.0000 H   0  0  0  0  0  0  0  0  0  0  0  0
  1  4  1  0  0  0  0
  1 20  1  0  0  0  0
  1 21  1  0  0  0  0
  1 22  1  0  0  0  0
  2  5  1  0  0  0  0
  2 10  2  0  0  0  0
  3  4  1  0  0  0  0
  3  5  1  0  0  0  0
  3  6  1  0  0  0  0
  3  7  1  0  0  0  0
  4 12  1  0  0  0  0
  4 13  1  0  0  0  0
  5  8  2  0  0  0  0
  6 17  1  0  0  0  0
  6 18  1  0  0  0  0
  6 19  1  0  0  0  0
  7 14  1  0  0  0  0
  7 15  1  0  0  0  0
  7 16  1  0  0  0  0
  8  9  1  0  0  0  0
  8 23  1  0  0  0  0
  9 11  2  0  0  0  0
  9 24  1  0  0  0  0
 10 11  1  0  0  0  0
 10 25  1  0  0  0  0
 11 26  1  0  0  0  0
M  CHG  1   1   1
M  END
> <PUBCHEM_COMPOUND_CID>
32639911

> <PUBCHEM_COMPOUND_CANONICALIZED>
1

> <PUBCHEM_CACTVS_COMPLEXITY>
121

> <PUBCHEM_CACTVS_HBOND_ACCEPTOR>
1

> <PUBCHEM_CACTVS_HBOND_DONOR>
1

> <PUBCHEM_CACTVS_ROTATABLE_BOND>
2

> <PUBCHEM_CACTVS_SUBSKEYS>
AAADccBzAAAAAAAAAAAAAAAAAAAAAAAAAAAsAAAAAAAAAAABgAAAHAAQAAAADgjBFgQ+gJJIEACgATRnRACCgCAxAiAI2KA4ZJgIIOLA0ZGEIAhggADIyAcQgEANAAAAAAAAAAAAAAAAAAAAAAAAAAAAAA==

> <PUBCHEM_IUPAC_OPENEYE_NAME>
[2-methyl-2-(2-pyridyl)propyl]ammonium

> <PUBCHEM_IUPAC_CAS_NAME>
[2-methyl-2-(2-pyridinyl)propyl]ammonium

> <PUBCHEM_IUPAC_NAME>
(2-methyl-2-pyridin-2-ylpropyl)azanium

> <PUBCHEM_IUPAC_SYSTEMATIC_NAME>
(2-methyl-2-pyridin-2-yl-propyl)azanium

> <PUBCHEM_IUPAC_TRADITIONAL_NAME>
[2-methyl-2-(2-pyridyl)propyl]ammonium

> <PUBCHEM_IUPAC_INCHI>
InChI=1S/C9H14N2/c1-9(2,7-10)8-5-3-4-6-11-8/h3-6H,7,10H2,1-2H3/p+1

> <PUBCHEM_IUPAC_INCHIKEY>
ZSYQWLPBBUBFLD-UHFFFAOYSA-O

> <PUBCHEM_XLOGP3>
0.9

> <PUBCHEM_EXACT_MASS>
151.123523

> <PUBCHEM_MOLECULAR_FORMULA>
C9H15N2+

> <PUBCHEM_MOLECULAR_WEIGHT>
151.2288

> <PUBCHEM_OPENEYE_CAN_SMILES>
CC(C)(C[NH3+])C1=CC=CC=N1

> <PUBCHEM_OPENEYE_ISO_SMILES>
CC(C)(C[NH3+])C1=CC=CC=N1

> <PUBCHEM_CACTVS_TPSA>
40.5

> <PUBCHEM_MONOISOTOPIC_WEIGHT>
151.123523

> <PUBCHEM_TOTAL_CHARGE>
1

> <PUBCHEM_HEAVY_ATOM_COUNT>
11

> <PUBCHEM_ATOM_DEF_STEREO_COUNT>
0

> <PUBCHEM_ATOM_UDEF_STEREO_COUNT>
0

> <PUBCHEM_BOND_DEF_STEREO_COUNT>
0

> <PUBCHEM_BOND_UDEF_STEREO_COUNT>
0

> <PUBCHEM_ISOTOPIC_ATOM_COUNT>
0

> <PUBCHEM_COMPONENT_COUNT>
1

> <PUBCHEM_CACTVS_TAUTO_COUNT>
1

> <PUBCHEM_COORDINATE_TYPE>
1
5
255

> <PUBCHEM_BONDANNOTATIONS>
10  11  8
2  10  8
2  5  8
5  8  8
8  9  8
9  11  8

$$$$
32646022
  -OEChem-03221309342D

 41 42  0     0  0  0  0  0  0999 V2000
    6.6353   -1.2769    0.0000 O   0  0  0  0  0  0  0  0  0  0  0  0
    6.2781    0.4179    0.0000 N   0  0  0  0  0  0  0  0  0  0  0  0
    4.6783   -3.2988    0.0000 N   0  0  0  0  0  0  0  0  0  0  0  0
    8.5458    1.7809    0.0000 C   0  0  0  0  0  0  0  0  0  0  0  0
    7.5673    1.5747    0.0000 C   0  0  0  0  0  0  0  0  0  0  0  0
    8.8564    2.7314    0.0000 C   0  0  0  0  0  0  0  0  0  0  0  0
    7.2566    0.6241    0.0000 C   0  0  0  0  0  0  0  0  0  0  0  0
    9.8349    2.9376    0.0000 C   0  0  0  0  0  0  0  0  0  0  0  0
    4.6783   -1.6893    0.0000 C   0  0  0  0  0  0  0  0  0  0  0  0
    4.9889   -0.7388    0.0000 C   0  0  0  0  0  0  0  0  0  0  0  0
    3.7321   -1.9941    0.0000 C   0  0  0  0  0  0  0  0  0  0  0  0
    3.7321   -2.9941    0.0000 C   0  0  0  0  0  0  0  0  0  0  0  0
    5.9674   -0.5326    0.0000 C   0  0  0  0  0  0  0  0  0  0  0  0
    5.2619   -2.4941    0.0000 C   0  0  0  0  0  0  0  0  0  0  0  0
   10.1456    3.8881    0.0000 C   0  0  0  0  0  0  0  0  0  0  0  0
    2.8660   -1.4941    0.0000 C   0  0  0  0  0  0  0  0  0  0  0  0
    2.8660   -3.4941    0.0000 C   0  0  0  0  0  0  0  0  0  0  0  0
    2.0000   -1.9941    0.0000 C   0  0  0  0  0  0  0  0  0  0  0  0
    2.0000   -2.9941    0.0000 C   0  0  0  0  0  0  0  0  0  0  0  0
    8.5663    1.1612    0.0000 H   0  0  0  0  0  0  0  0  0  0  0  0
    9.1596    1.6935    0.0000 H   0  0  0  0  0  0  0  0  0  0  0  0
    7.5467    2.1943    0.0000 H   0  0  0  0  0  0  0  0  0  0  0  0
    6.9535    1.6620    0.0000 H   0  0  0  0  0  0  0  0  0  0  0  0
    8.8359    3.3511    0.0000 H   0  0  0  0  0  0  0  0  0  0  0  0
    8.2426    2.8187    0.0000 H   0  0  0  0  0  0  0  0  0  0  0  0
    7.2772    0.0045    0.0000 H   0  0  0  0  0  0  0  0  0  0  0  0
    7.8704    0.5368    0.0000 H   0  0  0  0  0  0  0  0  0  0  0  0
    9.8555    2.3180    0.0000 H   0  0  0  0  0  0  0  0  0  0  0  0
   10.4488    2.8503    0.0000 H   0  0  0  0  0  0  0  0  0  0  0  0
    4.9684   -0.1192    0.0000 H   0  0  0  0  0  0  0  0  0  0  0  0
    4.3751   -0.6515    0.0000 H   0  0  0  0  0  0  0  0  0  0  0  0
    5.8640    0.8794    0.0000 H   0  0  0  0  0  0  0  0  0  0  0  0
    5.8819   -2.4941    0.0000 H   0  0  0  0  0  0  0  0  0  0  0  0
    4.8709   -3.8881    0.0000 H   0  0  0  0  0  0  0  0  0  0  0  0
   10.7349    3.6955    0.0000 H   0  0  0  0  0  0  0  0  0  0  0  0
   10.3382    4.4775    0.0000 H   0  0  0  0  0  0  0  0  0  0  0  0
    9.5563    4.0807    0.0000 H   0  0  0  0  0  0  0  0  0  0  0  0
    2.8660   -0.8741    0.0000 H   0  0  0  0  0  0  0  0  0  0  0  0
    2.8660   -4.1141    0.0000 H   0  0  0  0  0  0  0  0  0  0  0  0
    1.4631   -1.6841    0.0000 H   0  0  0  0  0  0  0  0  0  0  0  0
    1.4631   -3.3041    0.0000 H   0  0  0  0  0  0  0  0  0  0  0  0
  1 13  2  0  0  0  0
  2  7  1  0  0  0  0
  2 13  1  0  0  0  0
  2 32  1  0  0  0  0
  3 12  1  0  0  0  0
  3 14  1  0  0  0  0
  3 34  1  0  0  0  0
  4  5  1  0  0  0  0
  4  6  1  0  0  0  0
  4 20  1  0  0  0  0
  4 21  1  0  0  0  0
  5  7  1  0  0  0  0
  5 22  1  0  0  0  0
  5 23  1  0  0  0  0
  6  8  1  0  0  0  0
  6 24  1  0  0  0  0
  6 25  1  0  0  0  0
  7 26  1  0  0  0  0
  7 27  1  0  0  0  0
  8 15  1  0  0  0  0
  8 28  1  0  0  0  0
  8 29  1  0  0  0  0
  9 10  1  0  0  0  0
  9 11  1  0  0  0  0
  9 14  2  0  0  0  0
 10 13  1  0  0  0  0
 10 30  1  0  0  0  0
 10 31  1  0  0  0  0
 11 12  1  0  0  0  0
 11 16  2  0  0  0  0
 12 17  2  0  0  0  0
 14 33  1  0  0  0  0
 15 35  1  0  0  0  0
 15 36  1  0  0  0  0
 15 37  1  0  0  0  0
 16 18  1  0  0  0  0
 16 38  1  0  0  0  0
 17 19  1  0  0  0  0
 17 39  1  0  0  0  0
 18 19  2  0  0  0  0
 18 40  1  0  0  0  0
 19 41  1  0  0  0  0
M  END
> <PUBCHEM_COMPOUND_CID>
32646022

> <PUBCHEM_COMPOUND_CANONICALIZED>
1

> <PUBCHEM_CACTVS_COMPLEXITY>
280

> <PUBCHEM_CACTVS_HBOND_ACCEPTOR>
1

> <PUBCHEM_CACTVS_HBOND_DONOR>
2

> <PUBCHEM_CACTVS_ROTATABLE_BOND>
7

> <PUBCHEM_CACTVS_SUBSKEYS>
AAADceB7IAAAAAAAAAAAAAAAAAAAAWAAAAAwAAAAAAAAAFgB8AAAHgAQAAAADAjBngQ+wPLJkACoAzV3VACCgCAxAiAI2aE4ZJgIIPLAlZGEIAhglgDIyAccicCegAAAAAACAAAAAAAAAAQAAAAAAAAAAA==

> <PUBCHEM_IUPAC_OPENEYE_NAME>
N-hexyl-2-(1H-indol-3-yl)acetamide

> <PUBCHEM_IUPAC_CAS_NAME>
N-hexyl-2-(1H-indol-3-yl)acetamide

> <PUBCHEM_IUPAC_NAME>
N-hexyl-2-(1H-indol-3-yl)acetamide

> <PUBCHEM_IUPAC_SYSTEMATIC_NAME>
N-hexyl-2-(1H-indol-3-yl)ethanamide

> <PUBCHEM_IUPAC_TRADITIONAL_NAME>
N-hexyl-2-(1H-indol-3-yl)acetamide

> <PUBCHEM_IUPAC_INCHI>
InChI=1S/C16H22N2O/c1-2-3-4-7-10-17-16(19)11-13-12-18-15-9-6-5-8-14(13)15/h5-6,8-9,12,18H,2-4,7,10-11H2,1H3,(H,17,19)

> <PUBCHEM_IUPAC_INCHIKEY>
AFMRDOYTJKBXNB-UHFFFAOYSA-N

> <PUBCHEM_XLOGP3>
3.5

> <PUBCHEM_EXACT_MASS>
258.173213

> <PUBCHEM_MOLECULAR_FORMULA>
C16H22N2O

> <PUBCHEM_MOLECULAR_WEIGHT>
258.35868

> <PUBCHEM_OPENEYE_CAN_SMILES>
CCCCCCNC(=O)CC1=CNC2=CC=CC=C21

> <PUBCHEM_OPENEYE_ISO_SMILES>
CCCCCCNC(=O)CC1=CNC2=CC=CC=C21

> <PUBCHEM_CACTVS_TPSA>
44.9

> <PUBCHEM_MONOISOTOPIC_WEIGHT>
258.173213

> <PUBCHEM_TOTAL_CHARGE>
0

> <PUBCHEM_HEAVY_ATOM_COUNT>
19

> <PUBCHEM_ATOM_DEF_STEREO_COUNT>
0

> <PUBCHEM_ATOM_UDEF_STEREO_COUNT>
0

> <PUBCHEM_BOND_DEF_STEREO_COUNT>
0

> <PUBCHEM_BOND_UDEF_STEREO_COUNT>
0

> <PUBCHEM_ISOTOPIC_ATOM_COUNT>
0

> <PUBCHEM_COMPONENT_COUNT>
1

> <PUBCHEM_CACTVS_TAUTO_COUNT>
2

> <PUBCHEM_COORDINATE_TYPE>
1
5
255

> <PUBCHEM_BONDANNOTATIONS>
11  12  8
11  16  8
12  17  8
16  18  8
17  19  8
18  19  8
3  12  8
3  14  8
9  11  8
9  14  8

$$$$
