29658953
  -OEChem-11301217422D

 60 62  0     0  0  0  0  0  0999 V2000
    7.9244   -0.4923    0.0000 O   0  0  0  0  0  0  0  0  0  0  0  0
   11.4813    2.0274    0.0000 N   0  3  0  0  0  0  0  0  0  0  0  0
    7.5673    1.2025    0.0000 N   0  0  0  0  0  0  0  0  0  0  0  0
    4.6783   -3.6710    0.0000 N   0  0  0  0  0  0  0  0  0  0  0  0
   10.5028    1.8212    0.0000 C   0  0  0  0  0  0  0  0  0  0  0  0
   12.4598    2.2336    0.0000 C   0  0  0  0  0  0  0  0  0  0  0  0
   11.6875    1.0489    0.0000 C   0  0  0  0  0  0  0  0  0  0  0  0
    9.8349    2.5655    0.0000 C   0  0  0  0  0  0  0  0  0  0  0  0
    8.8564    2.3592    0.0000 C   0  0  0  0  0  0  0  0  0  0  0  0
   10.9432    0.3810    0.0000 C   0  0  0  0  0  0  0  0  0  0  0  0
   13.1276    1.4893    0.0000 C   0  0  0  0  0  0  0  0  0  0  0  0
    8.5458    1.4087    0.0000 C   0  0  0  0  0  0  0  0  0  0  0  0
   10.1456    3.5160    0.0000 C   0  0  0  0  0  0  0  0  0  0  0  0
    4.9889   -1.1110    0.0000 C   0  0  0  0  0  0  0  0  0  0  0  0
    5.9674   -0.9048    0.0000 C   0  0  0  0  0  0  0  0  0  0  0  0
    4.6783   -2.0615    0.0000 C   0  0  0  0  0  0  0  0  0  0  0  0
    8.1886    3.1035    0.0000 C   0  0  0  0  0  0  0  0  0  0  0  0
    6.2781    0.0458    0.0000 C   0  0  0  0  0  0  0  0  0  0  0  0
    3.7320   -2.3662    0.0000 C   0  0  0  0  0  0  0  0  0  0  0  0
    9.4778    4.2603    0.0000 C   0  0  0  0  0  0  0  0  0  0  0  0
    7.2566    0.2520    0.0000 C   0  0  0  0  0  0  0  0  0  0  0  0
    3.7320   -3.3662    0.0000 C   0  0  0  0  0  0  0  0  0  0  0  0
    8.4993    4.0541    0.0000 C   0  0  0  0  0  0  0  0  0  0  0  0
    5.2619   -2.8662    0.0000 C   0  0  0  0  0  0  0  0  0  0  0  0
    2.8660   -1.8662    0.0000 C   0  0  0  0  0  0  0  0  0  0  0  0
    2.8660   -3.8662    0.0000 C   0  0  0  0  0  0  0  0  0  0  0  0
    2.0000   -2.3662    0.0000 C   0  0  0  0  0  0  0  0  0  0  0  0
    2.0000   -3.3662    0.0000 C   0  0  0  0  0  0  0  0  0  0  0  0
   11.3534    2.6340    0.0000 H   0  0  0  0  0  0  0  0  0  0  0  0
    9.9764    1.4935    0.0000 H   0  0  0  0  0  0  0  0  0  0  0  0
   10.7340    1.2459    0.0000 H   0  0  0  0  0  0  0  0  0  0  0  0
   12.9862    2.5612    0.0000 H   0  0  0  0  0  0  0  0  0  0  0  0
   12.0152    0.5225    0.0000 H   0  0  0  0  0  0  0  0  0  0  0  0
   12.2628    1.2801    0.0000 H   0  0  0  0  0  0  0  0  0  0  0  0
   12.2285    2.8088    0.0000 H   0  0  0  0  0  0  0  0  0  0  0  0
   10.5291    0.8425    0.0000 H   0  0  0  0  0  0  0  0  0  0  0  0
   12.6662    1.0752    0.0000 H   0  0  0  0  0  0  0  0  0  0  0  0
   13.5417    1.0278    0.0000 H   0  0  0  0  0  0  0  0  0  0  0  0
   13.5891    1.9034    0.0000 H   0  0  0  0  0  0  0  0  0  0  0  0
   10.4817   -0.0330    0.0000 H   0  0  0  0  0  0  0  0  0  0  0  0
   11.3573   -0.0804    0.0000 H   0  0  0  0  0  0  0  0  0  0  0  0
    8.5663    0.7891    0.0000 H   0  0  0  0  0  0  0  0  0  0  0  0
    9.1596    1.3214    0.0000 H   0  0  0  0  0  0  0  0  0  0  0  0
   10.7523    3.6438    0.0000 H   0  0  0  0  0  0  0  0  0  0  0  0
    4.9684   -0.4913    0.0000 H   0  0  0  0  0  0  0  0  0  0  0  0
    4.3751   -1.0236    0.0000 H   0  0  0  0  0  0  0  0  0  0  0  0
    5.9880   -1.5244    0.0000 H   0  0  0  0  0  0  0  0  0  0  0  0
    6.5812   -0.9921    0.0000 H   0  0  0  0  0  0  0  0  0  0  0  0
    6.2575    0.6654    0.0000 H   0  0  0  0  0  0  0  0  0  0  0  0
    5.6643    0.1331    0.0000 H   0  0  0  0  0  0  0  0  0  0  0  0
    7.5819    2.9757    0.0000 H   0  0  0  0  0  0  0  0  0  0  0  0
    7.1532    1.6640    0.0000 H   0  0  0  0  0  0  0  0  0  0  0  0
    9.6704    4.8496    0.0000 H   0  0  0  0  0  0  0  0  0  0  0  0
    8.0852    4.5155    0.0000 H   0  0  0  0  0  0  0  0  0  0  0  0
    5.8819   -2.8662    0.0000 H   0  0  0  0  0  0  0  0  0  0  0  0
    4.8709   -4.2603    0.0000 H   0  0  0  0  0  0  0  0  0  0  0  0
    2.8660   -1.2462    0.0000 H   0  0  0  0  0  0  0  0  0  0  0  0
    2.8660   -4.4862    0.0000 H   0  0  0  0  0  0  0  0  0  0  0  0
    1.4631   -2.0562    0.0000 H   0  0  0  0  0  0  0  0  0  0  0  0
    1.4631   -3.6762    0.0000 H   0  0  0  0  0  0  0  0  0  0  0  0
  1 21  2  0  0  0  0
  2  5  1  0  0  0  0
  2  6  1  0  0  0  0
  2  7  1  0  0  0  0
  2 29  1  0  0  0  0
  3 12  1  0  0  0  0
  3 21  1  0  0  0  0
  3 52  1  0  0  0  0
  4 22  1  0  0  0  0
  4 24  1  0  0  0  0
  4 56  1  0  0  0  0
  5  8  1  0  0  0  0
  5 30  1  0  0  0  0
  5 31  1  0  0  0  0
  6 11  1  0  0  0  0
  6 32  1  0  0  0  0
  6 35  1  0  0  0  0
  7 10  1  0  0  0  0
  7 33  1  0  0  0  0
  7 34  1  0  0  0  0
  8  9  1  0  0  0  0
  8 13  2  0  0  0  0
  9 12  1  0  0  0  0
  9 17  2  0  0  0  0
 10 36  1  0  0  0  0
 10 40  1  0  0  0  0
 10 41  1  0  0  0  0
 11 37  1  0  0  0  0
 11 38  1  0  0  0  0
 11 39  1  0  0  0  0
 12 42  1  0  0  0  0
 12 43  1  0  0  0  0
 13 20  1  0  0  0  0
 13 44  1  0  0  0  0
 14 15  1  0  0  0  0
 14 16  1  0  0  0  0
 14 45  1  0  0  0  0
 14 46  1  0  0  0  0
 15 18  1  0  0  0  0
 15 47  1  0  0  0  0
 15 48  1  0  0  0  0
 16 19  1  0  0  0  0
 16 24  2  0  0  0  0
 17 23  1  0  0  0  0
 17 51  1  0  0  0  0
 18 21  1  0  0  0  0
 18 49  1  0  0  0  0
 18 50  1  0  0  0  0
 19 22  1  0  0  0  0
 19 25  2  0  0  0  0
 20 23  2  0  0  0  0
 20 53  1  0  0  0  0
 22 26  2  0  0  0  0
 23 54  1  0  0  0  0
 24 55  1  0  0  0  0
 25 27  1  0  0  0  0
 25 57  1  0  0  0  0
 26 28  1  0  0  0  0
 26 58  1  0  0  0  0
 27 28  2  0  0  0  0
 27 59  1  0  0  0  0
 28 60  1  0  0  0  0
M  CHG  1   2   1
M  END
> <PUBCHEM_COMPOUND_CID>
29658953

> <PUBCHEM_COMPOUND_CANONICALIZED>
1

> <PUBCHEM_CACTVS_COMPLEXITY>
465

> <PUBCHEM_CACTVS_HBOND_ACCEPTOR>
1

> <PUBCHEM_CACTVS_HBOND_DONOR>
3

> <PUBCHEM_CACTVS_ROTATABLE_BOND>
10

> <PUBCHEM_CACTVS_SUBSKEYS>
AAADcfB7IAAAAAAAAAAAAAAAAAAAAWAAAAAwYAAAAAAAAFgB9AAAHgAQAAAADAjBngQ+wPPJkACoAzV3VACCgCAxAiAI2aE4ZJgIIPLAkZGEIAhglgDIyAcYiMCOgAAAAAASAAAAAAAAACQAAAAAAAAAAA==

> <PUBCHEM_IUPAC_OPENEYE_NAME>
diethyl-[[2-[[4-(1H-indol-3-yl)butanoylamino]methyl]phenyl]methyl]ammonium

> <PUBCHEM_IUPAC_CAS_NAME>
diethyl-[[2-[[[4-(1H-indol-3-yl)-1-oxobutyl]amino]methyl]phenyl]methyl]ammonium

> <PUBCHEM_IUPAC_NAME>
diethyl-[[2-[[4-(1H-indol-3-yl)butanoylamino]methyl]phenyl]methyl]azanium

> <PUBCHEM_IUPAC_SYSTEMATIC_NAME>
diethyl-[[2-[[4-(1H-indol-3-yl)butanoylamino]methyl]phenyl]methyl]azanium

> <PUBCHEM_IUPAC_TRADITIONAL_NAME>
diethyl-[2-[[4-(1H-indol-3-yl)butanoylamino]methyl]benzyl]ammonium

> <PUBCHEM_IUPAC_INCHI>
InChI=1S/C24H31N3O/c1-3-27(4-2)18-21-11-6-5-10-19(21)16-26-24(28)15-9-12-20-17-25-23-14-8-7-13-22(20)23/h5-8,10-11,13-14,17,25H,3-4,9,12,15-16,18H2,1-2H3,(H,26,28)/p+1

> <PUBCHEM_IUPAC_INCHIKEY>
ORFVTFRKWRUKIL-UHFFFAOYSA-O

> <PUBCHEM_XLOGP3>
4.1

> <PUBCHEM_EXACT_MASS>
378.254538

> <PUBCHEM_MOLECULAR_FORMULA>
C24H32N3O+

> <PUBCHEM_MOLECULAR_WEIGHT>
378.53038

> <PUBCHEM_OPENEYE_CAN_SMILES>
CC[NH+](CC)CC1=CC=CC=C1CNC(=O)CCCC2=CNC3=CC=CC=C32

> <PUBCHEM_OPENEYE_ISO_SMILES>
CC[NH+](CC)CC1=CC=CC=C1CNC(=O)CCCC2=CNC3=CC=CC=C32

> <PUBCHEM_CACTVS_TPSA>
49.3

> <PUBCHEM_MONOISOTOPIC_WEIGHT>
378.254538

> <PUBCHEM_TOTAL_CHARGE>
1

> <PUBCHEM_HEAVY_ATOM_COUNT>
28

> <PUBCHEM_ATOM_DEF_STEREO_COUNT>
0

> <PUBCHEM_ATOM_UDEF_STEREO_COUNT>
0

> <PUBCHEM_BOND_DEF_STEREO_COUNT>
0

> <PUBCHEM_BOND_UDEF_STEREO_COUNT>
0

> <PUBCHEM_ISOTOPIC_ATOM_COUNT>
0

> <PUBCHEM_COMPONENT_COUNT>
1

> <PUBCHEM_CACTVS_TAUTO_COUNT>
2

> <PUBCHEM_COORDINATE_TYPE>
1
5
255

> <PUBCHEM_BONDANNOTATIONS>
13  20  8
16  19  8
16  24  8
17  23  8
19  22  8
19  25  8
20  23  8
22  26  8
25  27  8
26  28  8
27  28  8
4  22  8
4  24  8
8  13  8
8  9  8
9  17  8

$$$$
