56338034
  -OEChem-11301218102D

 31 31  0     0  0  0  0  0  0999 V2000
    2.0000   -3.0000    0.0000 I   0  0  0  0  0  0  0  0  0  0  0  0
    5.4641    0.0000    0.0000 O   0  0  0  0  0  0  0  0  0  0  0  0
    3.7320    0.0000    0.0000 N   0  0  0  0  0  0  0  0  0  0  0  0
    4.5981    1.5000    0.0000 C   0  0  0  0  0  0  0  0  0  0  0  0
    4.5981    2.5000    0.0000 C   0  0  0  0  0  0  0  0  0  0  0  0
    5.5981    1.5000    0.0000 C   0  0  0  0  0  0  0  0  0  0  0  0
    3.5981    1.5000    0.0000 C   0  0  0  0  0  0  0  0  0  0  0  0
    4.5981    0.5000    0.0000 C   0  0  0  0  0  0  0  0  0  0  0  0
    5.4641    3.0000    0.0000 C   0  0  0  0  0  0  0  0  0  0  0  0
    3.7320   -1.0000    0.0000 C   0  0  0  0  0  0  0  0  0  0  0  0
    2.8660   -1.5000    0.0000 C   0  0  0  0  0  0  0  0  0  0  0  0
    4.5981   -1.5000    0.0000 C   0  0  0  0  0  0  0  0  0  0  0  0
    2.8660   -2.5000    0.0000 C   0  0  0  0  0  0  0  0  0  0  0  0
    4.5981   -2.5000    0.0000 C   0  0  0  0  0  0  0  0  0  0  0  0
    3.7320   -3.0000    0.0000 C   0  0  0  0  0  0  0  0  0  0  0  0
    4.3860    3.0826    0.0000 H   0  0  0  0  0  0  0  0  0  0  0  0
    3.9875    2.3923    0.0000 H   0  0  0  0  0  0  0  0  0  0  0  0
    5.5981    0.8800    0.0000 H   0  0  0  0  0  0  0  0  0  0  0  0
    6.2181    1.5000    0.0000 H   0  0  0  0  0  0  0  0  0  0  0  0
    5.5981    2.1200    0.0000 H   0  0  0  0  0  0  0  0  0  0  0  0
    3.5981    2.1200    0.0000 H   0  0  0  0  0  0  0  0  0  0  0  0
    2.9781    1.5000    0.0000 H   0  0  0  0  0  0  0  0  0  0  0  0
    3.5981    0.8800    0.0000 H   0  0  0  0  0  0  0  0  0  0  0  0
    5.7741    2.4631    0.0000 H   0  0  0  0  0  0  0  0  0  0  0  0
    6.0010    3.3100    0.0000 H   0  0  0  0  0  0  0  0  0  0  0  0
    5.1541    3.5369    0.0000 H   0  0  0  0  0  0  0  0  0  0  0  0
    3.1951    0.3100    0.0000 H   0  0  0  0  0  0  0  0  0  0  0  0
    2.3291   -1.1900    0.0000 H   0  0  0  0  0  0  0  0  0  0  0  0
    5.1350   -1.1900    0.0000 H   0  0  0  0  0  0  0  0  0  0  0  0
    5.1350   -2.8100    0.0000 H   0  0  0  0  0  0  0  0  0  0  0  0
    3.7320   -3.6200    0.0000 H   0  0  0  0  0  0  0  0  0  0  0  0
  1 13  1  0  0  0  0
  2  8  2  0  0  0  0
  3  8  1  0  0  0  0
  3 10  1  0  0  0  0
  3 27  1  0  0  0  0
  4  5  1  0  0  0  0
  4  6  1  0  0  0  0
  4  7  1  0  0  0  0
  4  8  1  0  0  0  0
  5  9  1  0  0  0  0
  5 16  1  0  0  0  0
  5 17  1  0  0  0  0
  6 18  1  0  0  0  0
  6 19  1  0  0  0  0
  6 20  1  0  0  0  0
  7 21  1  0  0  0  0
  7 22  1  0  0  0  0
  7 23  1  0  0  0  0
  9 24  1  0  0  0  0
  9 25  1  0  0  0  0
  9 26  1  0  0  0  0
 10 11  2  0  0  0  0
 10 12  1  0  0  0  0
 11 13  1  0  0  0  0
 11 28  1  0  0  0  0
 12 14  2  0  0  0  0
 12 29  1  0  0  0  0
 13 15  2  0  0  0  0
 14 15  1  0  0  0  0
 14 30  1  0  0  0  0
 15 31  1  0  0  0  0
M  END
> <PUBCHEM_COMPOUND_CID>
56338034

> <PUBCHEM_COMPOUND_CANONICALIZED>
1

> <PUBCHEM_CACTVS_COMPLEXITY>
228

> <PUBCHEM_CACTVS_HBOND_ACCEPTOR>
1

> <PUBCHEM_CACTVS_HBOND_DONOR>
1

> <PUBCHEM_CACTVS_ROTATABLE_BOND>
3

> <PUBCHEM_CACTVS_SUBSKEYS>
AAADceByIAAAAgAAAAAAAAAAAAAAAAAAAAAwAAAAAAAAAAABAAAAHgAwAAAADgiDkAAywILAAACIACVSUACCAAAhAgAIiAEAZIgIIDLAkZGEIAhglADIyAcQAAAJAAAAAAAAAAAAAAAAAAAAAAAAAAAAAA==

> <PUBCHEM_IUPAC_OPENEYE_NAME>
N-(3-iodophenyl)-2,2-dimethyl-butanamide

> <PUBCHEM_IUPAC_CAS_NAME>
N-(3-iodophenyl)-2,2-dimethylbutanamide

> <PUBCHEM_IUPAC_NAME>
N-(3-iodophenyl)-2,2-dimethylbutanamide

> <PUBCHEM_IUPAC_SYSTEMATIC_NAME>
N-(3-iodanylphenyl)-2,2-dimethyl-butanamide

> <PUBCHEM_IUPAC_TRADITIONAL_NAME>
N-(3-iodophenyl)-2,2-dimethyl-butyramide

> <PUBCHEM_IUPAC_INCHI>
InChI=1S/C12H16INO/c1-4-12(2,3)11(15)14-10-7-5-6-9(13)8-10/h5-8H,4H2,1-3H3,(H,14,15)

> <PUBCHEM_IUPAC_INCHIKEY>
PPGXGVDSIXADOW-UHFFFAOYSA-N

> <PUBCHEM_XLOGP3>
4.4

> <PUBCHEM_EXACT_MASS>
317.027662

> <PUBCHEM_MOLECULAR_FORMULA>
C12H16INO

> <PUBCHEM_MOLECULAR_WEIGHT>
317.16601

> <PUBCHEM_OPENEYE_CAN_SMILES>
CCC(C)(C)C(=O)NC1=CC(=CC=C1)I

> <PUBCHEM_OPENEYE_ISO_SMILES>
CCC(C)(C)C(=O)NC1=CC(=CC=C1)I

> <PUBCHEM_CACTVS_TPSA>
29.1

> <PUBCHEM_MONOISOTOPIC_WEIGHT>
317.027662

> <PUBCHEM_TOTAL_CHARGE>
0

> <PUBCHEM_HEAVY_ATOM_COUNT>
15

> <PUBCHEM_ATOM_DEF_STEREO_COUNT>
0

> <PUBCHEM_ATOM_UDEF_STEREO_COUNT>
0

> <PUBCHEM_BOND_DEF_STEREO_COUNT>
0

> <PUBCHEM_BOND_UDEF_STEREO_COUNT>
0

> <PUBCHEM_ISOTOPIC_ATOM_COUNT>
0

> <PUBCHEM_COMPONENT_COUNT>
1

> <PUBCHEM_CACTVS_TAUTO_COUNT>
2

> <PUBCHEM_COORDINATE_TYPE>
1
5
255

> <PUBCHEM_BONDANNOTATIONS>
10  11  8
10  12  8
11  13  8
12  14  8
13  15  8
14  15  8

$$$$
