23876667
  -OEChem-11301217352D

 51 54  0     1  0  0  0  0  0999 V2000
    7.8666    2.9869    0.0000 O   0  0  0  0  0  0  0  0  0  0  0  0
   10.2126    1.8950    0.0000 O   0  0  0  0  0  0  0  0  0  0  0  0
   10.2164    4.0706    0.0000 O   0  0  0  0  0  0  0  0  0  0  0  0
    8.8189    5.4884    0.0000 O   0  0  0  0  0  0  0  0  0  0  0  0
    2.8660   -4.5784    0.0000 O   0  0  0  0  0  0  0  0  0  0  0  0
    2.0000   -3.0784    0.0000 O   0  0  0  0  0  0  0  0  0  0  0  0
    8.1424    1.2263    0.0000 N   0  0  0  0  0  0  0  0  0  0  0  0
    8.1424   -0.3832    0.0000 N   0  0  0  0  0  0  0  0  0  0  0  0
    6.3301    1.4216    0.0000 N   0  0  0  0  0  0  0  0  0  0  0  0
    6.3301   -1.5784    0.0000 N   0  0  0  0  0  0  0  0  0  0  0  0
    5.4641   -0.0784    0.0000 N   0  0  0  0  0  0  0  0  0  0  0  0
    9.4046    2.4842    0.0000 C   0  0  3  0  0  0  0  0  0  0  0  0
    8.4530    2.1768    0.0000 C   0  0  3  0  0  0  0  0  0  0  0  0
    9.4064    3.4842    0.0000 C   0  0  3  0  0  0  0  0  0  0  0  0
    8.4558    3.7949    0.0000 C   0  0  3  0  0  0  0  0  0  0  0  0
    8.1485    4.7464    0.0000 C   0  0  0  0  0  0  0  0  0  0  0  0
    7.1962    0.9216    0.0000 C   0  0  0  0  0  0  0  0  0  0  0  0
    8.7260    0.4216    0.0000 C   0  0  0  0  0  0  0  0  0  0  0  0
    7.1962   -0.0784    0.0000 C   0  0  0  0  0  0  0  0  0  0  0  0
    6.3301   -0.5784    0.0000 C   0  0  0  0  0  0  0  0  0  0  0  0
    5.4641    0.9216    0.0000 C   0  0  0  0  0  0  0  0  0  0  0  0
    5.4641   -2.0784    0.0000 C   0  0  0  0  0  0  0  0  0  0  0  0
    4.5981   -1.5784    0.0000 C   0  0  0  0  0  0  0  0  0  0  0  0
    5.4641   -3.0784    0.0000 C   0  0  0  0  0  0  0  0  0  0  0  0
    3.7320   -2.0784    0.0000 C   0  0  0  0  0  0  0  0  0  0  0  0
    4.5981   -3.5784    0.0000 C   0  0  0  0  0  0  0  0  0  0  0  0
    3.7320   -3.0784    0.0000 C   0  0  0  0  0  0  0  0  0  0  0  0
    2.8660   -3.5784    0.0000 C   0  0  0  0  0  0  0  0  0  0  0  0
    2.0000   -5.0784    0.0000 C   0  0  0  0  0  0  0  0  0  0  0  0
    2.0000   -6.0784    0.0000 C   0  0  0  0  0  0  0  0  0  0  0  0
    9.3066    1.8720    0.0000 H   0  0  0  0  0  0  0  0  0  0  0  0
    8.8907    1.7377    0.0000 H   0  0  0  0  0  0  0  0  0  0  0  0
    9.9583    3.2018    0.0000 H   0  0  0  0  0  0  0  0  0  0  0  0
    7.8436    3.8929    0.0000 H   0  0  0  0  0  0  0  0  0  0  0  0
    7.7676    5.2357    0.0000 H   0  0  0  0  0  0  0  0  0  0  0  0
    7.6005    4.4563    0.0000 H   0  0  0  0  0  0  0  0  0  0  0  0
   10.7795    2.1462    0.0000 H   0  0  0  0  0  0  0  0  0  0  0  0
   10.7823    3.8174    0.0000 H   0  0  0  0  0  0  0  0  0  0  0  0
    9.3460    0.4216    0.0000 H   0  0  0  0  0  0  0  0  0  0  0  0
    8.6283    6.0784    0.0000 H   0  0  0  0  0  0  0  0  0  0  0  0
    4.9272    1.2316    0.0000 H   0  0  0  0  0  0  0  0  0  0  0  0
    6.8671   -1.8884    0.0000 H   0  0  0  0  0  0  0  0  0  0  0  0
    4.5981   -0.9584    0.0000 H   0  0  0  0  0  0  0  0  0  0  0  0
    6.0010   -3.3884    0.0000 H   0  0  0  0  0  0  0  0  0  0  0  0
    3.1951   -1.7684    0.0000 H   0  0  0  0  0  0  0  0  0  0  0  0
    4.5981   -4.1984    0.0000 H   0  0  0  0  0  0  0  0  0  0  0  0
    1.7880   -4.4958    0.0000 H   0  0  0  0  0  0  0  0  0  0  0  0
    1.3894   -5.1861    0.0000 H   0  0  0  0  0  0  0  0  0  0  0  0
    1.3800   -6.0784    0.0000 H   0  0  0  0  0  0  0  0  0  0  0  0
    2.0000   -6.6984    0.0000 H   0  0  0  0  0  0  0  0  0  0  0  0
    2.6200   -6.0784    0.0000 H   0  0  0  0  0  0  0  0  0  0  0  0
  1 13  1  0  0  0  0
  1 15  1  0  0  0  0
  2 12  1  0  0  0  0
  2 37  1  0  0  0  0
  3 14  1  0  0  0  0
  3 38  1  0  0  0  0
  4 16  1  0  0  0  0
  4 40  1  0  0  0  0
  5 28  1  0  0  0  0
  5 29  1  0  0  0  0
  6 28  2  0  0  0  0
  7 13  1  0  0  0  0
  7 17  1  0  0  0  0
  7 18  1  0  0  0  0
  8 18  2  0  0  0  0
  8 19  1  0  0  0  0
  9 17  2  0  0  0  0
  9 21  1  0  0  0  0
 10 20  1  0  0  0  0
 10 22  1  0  0  0  0
 10 42  1  0  0  0  0
 11 20  1  0  0  0  0
 11 21  2  0  0  0  0
 12 13  1  0  0  0  0
 12 14  1  0  0  0  0
 12 31  1  0  0  0  0
 13 32  1  0  0  0  0
 14 15  1  0  0  0  0
 14 33  1  0  0  0  0
 15 16  1  0  0  0  0
 15 34  1  0  0  0  0
 16 35  1  0  0  0  0
 16 36  1  0  0  0  0
 17 19  1  0  0  0  0
 18 39  1  0  0  0  0
 19 20  2  0  0  0  0
 21 41  1  0  0  0  0
 22 23  2  0  0  0  0
 22 24  1  0  0  0  0
 23 25  1  0  0  0  0
 23 43  1  0  0  0  0
 24 26  2  0  0  0  0
 24 44  1  0  0  0  0
 25 27  2  0  0  0  0
 25 45  1  0  0  0  0
 26 27  1  0  0  0  0
 26 46  1  0  0  0  0
 27 28  1  0  0  0  0
 29 30  1  0  0  0  0
 29 47  1  0  0  0  0
 29 48  1  0  0  0  0
 30 49  1  0  0  0  0
 30 50  1  0  0  0  0
 30 51  1  0  0  0  0
M  END
> <PUBCHEM_COMPOUND_CID>
23876667

> <PUBCHEM_COMPOUND_CANONICALIZED>
1

> <PUBCHEM_CACTVS_COMPLEXITY>
592

> <PUBCHEM_CACTVS_HBOND_ACCEPTOR>
10

> <PUBCHEM_CACTVS_HBOND_DONOR>
4

> <PUBCHEM_CACTVS_ROTATABLE_BOND>
7

> <PUBCHEM_CACTVS_SUBSKEYS>
AAADceB7uAAAAAAAAAAAAAAAAAAAAWJAAAA8QAAAAAAAAFgB/AAAHgAQCAAADBzhnwY3+L/MFgCoAybzbACCgC01EqAJ2CEofNiLfnLA/dmedQhv0APb6af4+SOeCAAAAAAAAAAQAAAAAAAAAAAAAAAAAA==

> <PUBCHEM_IUPAC_OPENEYE_NAME>
ethyl 4-[[9-[3,4-dihydroxy-5-(hydroxymethyl)tetrahydrofuran-2-yl]purin-6-yl]amino]benzoate

> <PUBCHEM_IUPAC_CAS_NAME>
4-[[9-[3,4-dihydroxy-5-(hydroxymethyl)-2-oxolanyl]-6-purinyl]amino]benzoic acid ethyl ester

> <PUBCHEM_IUPAC_NAME>
ethyl 4-[[9-[3,4-dihydroxy-5-(hydroxymethyl)oxolan-2-yl]purin-6-yl]amino]benzoate

> <PUBCHEM_IUPAC_SYSTEMATIC_NAME>
ethyl 4-[[9-[5-(hydroxymethyl)-3,4-bis(oxidanyl)oxolan-2-yl]purin-6-yl]amino]benzoate

> <PUBCHEM_IUPAC_TRADITIONAL_NAME>
4-[[9-(3,4-dihydroxy-5-methylol-tetrahydrofuran-2-yl)purin-6-yl]amino]benzoic acid ethyl ester

> <PUBCHEM_IUPAC_INCHI>
InChI=1S/C19H21N5O6/c1-2-29-19(28)10-3-5-11(6-4-10)23-16-13-17(21-8-20-16)24(9-22-13)18-15(27)14(26)12(7-25)30-18/h3-6,8-9,12,14-15,18,25-27H,2,7H2,1H3,(H,20,21,23)

> <PUBCHEM_IUPAC_INCHIKEY>
BMKYTKWZNCZQNE-UHFFFAOYSA-N

> <PUBCHEM_XLOGP3>
1.4

> <PUBCHEM_EXACT_MASS>
415.149183

> <PUBCHEM_MOLECULAR_FORMULA>
C19H21N5O6

> <PUBCHEM_MOLECULAR_WEIGHT>
415.39994

> <PUBCHEM_OPENEYE_CAN_SMILES>
CCOC(=O)C1=CC=C(C=C1)NC2=NC=NC3=C2N=CN3C4C(C(C(O4)CO)O)O

> <PUBCHEM_OPENEYE_ISO_SMILES>
CCOC(=O)C1=CC=C(C=C1)NC2=NC=NC3=C2N=CN3C4C(C(C(O4)CO)O)O

> <PUBCHEM_CACTVS_TPSA>
152

> <PUBCHEM_MONOISOTOPIC_WEIGHT>
415.149183

> <PUBCHEM_TOTAL_CHARGE>
0

> <PUBCHEM_HEAVY_ATOM_COUNT>
30

> <PUBCHEM_ATOM_DEF_STEREO_COUNT>
0

> <PUBCHEM_ATOM_UDEF_STEREO_COUNT>
4

> <PUBCHEM_BOND_DEF_STEREO_COUNT>
0

> <PUBCHEM_BOND_UDEF_STEREO_COUNT>
0

> <PUBCHEM_ISOTOPIC_ATOM_COUNT>
0

> <PUBCHEM_COMPONENT_COUNT>
1

> <PUBCHEM_CACTVS_TAUTO_COUNT>
5

> <PUBCHEM_COORDINATE_TYPE>
1
5
255

> <PUBCHEM_BONDANNOTATIONS>
11  20  8
11  21  8
15  16  3
17  19  8
19  20  8
12  2  3
22  23  8
22  24  8
23  25  8
24  26  8
25  27  8
26  27  8
14  3  3
13  7  3
7  17  8
7  18  8
8  18  8
8  19  8
9  17  8
9  21  8

$$$$
23880002
  -OEChem-11301217352D

 29 31  0     0  0  0  0  0  0999 V2000
    3.8000   -1.7219    0.0000 O   0  0  0  0  0  0  0  0  0  0  0  0
    5.5321   -1.7219    0.0000 N   0  0  0  0  0  0  0  0  0  0  0  0
    3.8000    1.2781    0.0000 C   0  0  0  0  0  0  0  0  0  0  0  0
    4.3009    2.7024    0.0000 C   0  0  0  0  0  0  0  0  0  0  0  0
    3.3073    2.7219    0.0000 C   0  0  0  0  0  0  0  0  0  0  0  0
    4.6660    1.7781    0.0000 C   0  0  0  0  0  0  0  0  0  0  0  0
    2.9061    1.8127    0.0000 C   0  0  0  0  0  0  0  0  0  0  0  0
    3.8000    0.2781    0.0000 C   0  0  0  0  0  0  0  0  0  0  0  0
    5.5321    1.2781    0.0000 C   0  0  0  0  0  0  0  0  0  0  0  0
    4.6660   -0.2219    0.0000 C   0  0  0  0  0  0  0  0  0  0  0  0
    2.0000    1.2989    0.0000 C   0  0  0  0  0  0  0  0  0  0  0  0
    2.9061   -0.2566    0.0000 C   0  0  0  0  0  0  0  0  0  0  0  0
    5.5321    0.2781    0.0000 C   0  0  0  0  0  0  0  0  0  0  0  0
    2.0000    0.2572    0.0000 C   0  0  0  0  0  0  0  0  0  0  0  0
    4.6660   -1.2219    0.0000 C   0  0  0  0  0  0  0  0  0  0  0  0
    5.5321   -2.7219    0.0000 C   0  0  0  0  0  0  0  0  0  0  0  0
    4.9025    2.8523    0.0000 H   0  0  0  0  0  0  0  0  0  0  0  0
    4.2315    3.3185    0.0000 H   0  0  0  0  0  0  0  0  0  0  0  0
    3.4010    3.3348    0.0000 H   0  0  0  0  0  0  0  0  0  0  0  0
    2.7121    2.8954    0.0000 H   0  0  0  0  0  0  0  0  0  0  0  0
    6.0690    1.5881    0.0000 H   0  0  0  0  0  0  0  0  0  0  0  0
    1.4643    1.6109    0.0000 H   0  0  0  0  0  0  0  0  0  0  0  0
    2.9132   -0.8766    0.0000 H   0  0  0  0  0  0  0  0  0  0  0  0
    6.0690   -0.0319    0.0000 H   0  0  0  0  0  0  0  0  0  0  0  0
    1.4643   -0.0548    0.0000 H   0  0  0  0  0  0  0  0  0  0  0  0
    6.0690   -1.4119    0.0000 H   0  0  0  0  0  0  0  0  0  0  0  0
    4.9121   -2.7219    0.0000 H   0  0  0  0  0  0  0  0  0  0  0  0
    5.5321   -3.3419    0.0000 H   0  0  0  0  0  0  0  0  0  0  0  0
    6.1521   -2.7219    0.0000 H   0  0  0  0  0  0  0  0  0  0  0  0
  1 15  2  0  0  0  0
  2 15  1  0  0  0  0
  2 16  1  0  0  0  0
  2 26  1  0  0  0  0
  3  6  1  0  0  0  0
  3  7  2  0  0  0  0
  3  8  1  0  0  0  0
  4  5  1  0  0  0  0
  4  6  1  0  0  0  0
  4 17  1  0  0  0  0
  4 18  1  0  0  0  0
  5  7  1  0  0  0  0
  5 19  1  0  0  0  0
  5 20  1  0  0  0  0
  6  9  2  0  0  0  0
  7 11  1  0  0  0  0
  8 10  1  0  0  0  0
  8 12  2  0  0  0  0
  9 13  1  0  0  0  0
  9 21  1  0  0  0  0
 10 13  2  0  0  0  0
 10 15  1  0  0  0  0
 11 14  2  0  0  0  0
 11 22  1  0  0  0  0
 12 14  1  0  0  0  0
 12 23  1  0  0  0  0
 13 24  1  0  0  0  0
 14 25  1  0  0  0  0
 16 27  1  0  0  0  0
 16 28  1  0  0  0  0
 16 29  1  0  0  0  0
M  END
> <PUBCHEM_COMPOUND_CID>
23880002

> <PUBCHEM_COMPOUND_CANONICALIZED>
1

> <PUBCHEM_CACTVS_COMPLEXITY>
289

> <PUBCHEM_CACTVS_HBOND_ACCEPTOR>
1

> <PUBCHEM_CACTVS_HBOND_DONOR>
1

> <PUBCHEM_CACTVS_ROTATABLE_BOND>
1

> <PUBCHEM_CACTVS_SUBSKEYS>
AAADccByIAAAAAAAAAAAAAAAAAAAAYAAAAAwYAAAAAAAAGDBUAAAHgAQAAAADACBmAQyAMLAAACIAiFSEACCAAAkAAAIiIEIBMgIIDKAlRGEIQhgggAIiYcYiMCOwAACAAAQAACAAAQAACAAAQAACAAAAA==

> <PUBCHEM_IUPAC_OPENEYE_NAME>
N-methyl-1,2-dihydroacenaphthylene-5-carboxamide

> <PUBCHEM_IUPAC_CAS_NAME>
N-methyl-1,2-dihydroacenaphthylene-5-carboxamide

> <PUBCHEM_IUPAC_NAME>
N-methyl-1,2-dihydroacenaphthylene-5-carboxamide

> <PUBCHEM_IUPAC_SYSTEMATIC_NAME>
N-methyl-1,2-dihydroacenaphthylene-5-carboxamide

> <PUBCHEM_IUPAC_TRADITIONAL_NAME>
N-methylacenaphthene-5-carboxamide

> <PUBCHEM_IUPAC_INCHI>
InChI=1S/C14H13NO/c1-15-14(16)12-8-7-10-6-5-9-3-2-4-11(12)13(9)10/h2-4,7-8H,5-6H2,1H3,(H,15,16)

> <PUBCHEM_IUPAC_INCHIKEY>
VXKRMBUWQKGONE-UHFFFAOYSA-N

> <PUBCHEM_XLOGP3>
3.3

> <PUBCHEM_EXACT_MASS>
211.099714

> <PUBCHEM_MOLECULAR_FORMULA>
C14H13NO

> <PUBCHEM_MOLECULAR_WEIGHT>
211.25912

> <PUBCHEM_OPENEYE_CAN_SMILES>
CNC(=O)C1=C2C=CC=C3C2=C(CC3)C=C1

> <PUBCHEM_OPENEYE_ISO_SMILES>
CNC(=O)C1=C2C=CC=C3C2=C(CC3)C=C1

> <PUBCHEM_CACTVS_TPSA>
29.1

> <PUBCHEM_MONOISOTOPIC_WEIGHT>
211.099714

> <PUBCHEM_TOTAL_CHARGE>
0

> <PUBCHEM_HEAVY_ATOM_COUNT>
16

> <PUBCHEM_ATOM_DEF_STEREO_COUNT>
0

> <PUBCHEM_ATOM_UDEF_STEREO_COUNT>
0

> <PUBCHEM_BOND_DEF_STEREO_COUNT>
0

> <PUBCHEM_BOND_UDEF_STEREO_COUNT>
0

> <PUBCHEM_ISOTOPIC_ATOM_COUNT>
0

> <PUBCHEM_COMPONENT_COUNT>
1

> <PUBCHEM_CACTVS_TAUTO_COUNT>
5

> <PUBCHEM_COORDINATE_TYPE>
1
5
255

> <PUBCHEM_BONDANNOTATIONS>
10  13  8
11  14  8
12  14  8
3  6  8
3  7  8
3  8  8
6  9  8
7  11  8
8  10  8
8  12  8
9  13  8

$$$$
23884242
  -OEChem-11301217352D

 37 39  0     0  0  0  0  0  0999 V2000
    5.9674   -0.0171    0.0000 N   0  0  0  0  0  0  0  0  0  0  0  0
    4.6783   -2.7833    0.0000 N   0  0  0  0  0  0  0  0  0  0  0  0
    4.6783   -1.1738    0.0000 C   0  0  0  0  0  0  0  0  0  0  0  0
    3.7320   -1.4785    0.0000 C   0  0  0  0  0  0  0  0  0  0  0  0
    4.9889   -0.2233    0.0000 C   0  0  0  0  0  0  0  0  0  0  0  0
    3.7320   -2.4785    0.0000 C   0  0  0  0  0  0  0  0  0  0  0  0
    5.2619   -1.9785    0.0000 C   0  0  0  0  0  0  0  0  0  0  0  0
    6.2781    0.9335    0.0000 C   0  0  0  0  0  0  0  0  0  0  0  0
    2.8660   -0.9785    0.0000 C   0  0  0  0  0  0  0  0  0  0  0  0
    2.8660   -2.9785    0.0000 C   0  0  0  0  0  0  0  0  0  0  0  0
    7.2566    1.1397    0.0000 C   0  0  0  0  0  0  0  0  0  0  0  0
    5.6103    1.6778    0.0000 C   0  0  0  0  0  0  0  0  0  0  0  0
    7.5673    2.0902    0.0000 C   0  0  0  0  0  0  0  0  0  0  0  0
    5.9209    2.6283    0.0000 C   0  0  0  0  0  0  0  0  0  0  0  0
    6.8994    2.8345    0.0000 C   0  0  0  0  0  0  0  0  0  0  0  0
    2.0000   -1.4785    0.0000 C   0  0  0  0  0  0  0  0  0  0  0  0
    2.0000   -2.4785    0.0000 C   0  0  0  0  0  0  0  0  0  0  0  0
    8.5458    2.2964    0.0000 C   0  0  0  0  0  0  0  0  0  0  0  0
    5.2531    3.3726    0.0000 C   0  0  0  0  0  0  0  0  0  0  0  0
    4.9684    0.3964    0.0000 H   0  0  0  0  0  0  0  0  0  0  0  0
    4.3751   -0.1359    0.0000 H   0  0  0  0  0  0  0  0  0  0  0  0
    5.8819   -1.9785    0.0000 H   0  0  0  0  0  0  0  0  0  0  0  0
    6.3815   -0.4785    0.0000 H   0  0  0  0  0  0  0  0  0  0  0  0
    4.8709   -3.3726    0.0000 H   0  0  0  0  0  0  0  0  0  0  0  0
    2.8660   -0.3585    0.0000 H   0  0  0  0  0  0  0  0  0  0  0  0
    2.8660   -3.5985    0.0000 H   0  0  0  0  0  0  0  0  0  0  0  0
    7.6707    0.6782    0.0000 H   0  0  0  0  0  0  0  0  0  0  0  0
    5.0036    1.5499    0.0000 H   0  0  0  0  0  0  0  0  0  0  0  0
    7.0920    3.4238    0.0000 H   0  0  0  0  0  0  0  0  0  0  0  0
    1.4631   -1.1685    0.0000 H   0  0  0  0  0  0  0  0  0  0  0  0
    1.4631   -2.7885    0.0000 H   0  0  0  0  0  0  0  0  0  0  0  0
    8.6736    1.6898    0.0000 H   0  0  0  0  0  0  0  0  0  0  0  0
    9.1524    2.4243    0.0000 H   0  0  0  0  0  0  0  0  0  0  0  0
    8.4179    2.9031    0.0000 H   0  0  0  0  0  0  0  0  0  0  0  0
    5.7145    3.7866    0.0000 H   0  0  0  0  0  0  0  0  0  0  0  0
    4.8390    3.8340    0.0000 H   0  0  0  0  0  0  0  0  0  0  0  0
    4.7916    2.9585    0.0000 H   0  0  0  0  0  0  0  0  0  0  0  0
  1  5  1  0  0  0  0
  1  8  1  0  0  0  0
  1 23  1  0  0  0  0
  2  6  1  0  0  0  0
  2  7  1  0  0  0  0
  2 24  1  0  0  0  0
  3  4  1  0  0  0  0
  3  5  1  0  0  0  0
  3  7  2  0  0  0  0
  4  6  1  0  0  0  0
  4  9  2  0  0  0  0
  5 20  1  0  0  0  0
  5 21  1  0  0  0  0
  6 10  2  0  0  0  0
  7 22  1  0  0  0  0
  8 11  2  0  0  0  0
  8 12  1  0  0  0  0
  9 16  1  0  0  0  0
  9 25  1  0  0  0  0
 10 17  1  0  0  0  0
 10 26  1  0  0  0  0
 11 13  1  0  0  0  0
 11 27  1  0  0  0  0
 12 14  2  0  0  0  0
 12 28  1  0  0  0  0
 13 15  2  0  0  0  0
 13 18  1  0  0  0  0
 14 15  1  0  0  0  0
 14 19  1  0  0  0  0
 15 29  1  0  0  0  0
 16 17  2  0  0  0  0
 16 30  1  0  0  0  0
 17 31  1  0  0  0  0
 18 32  1  0  0  0  0
 18 33  1  0  0  0  0
 18 34  1  0  0  0  0
 19 35  1  0  0  0  0
 19 36  1  0  0  0  0
 19 37  1  0  0  0  0
M  END
> <PUBCHEM_COMPOUND_CID>
23884242

> <PUBCHEM_COMPOUND_CANONICALIZED>
1

> <PUBCHEM_CACTVS_COMPLEXITY>
281

> <PUBCHEM_CACTVS_HBOND_ACCEPTOR>
1

> <PUBCHEM_CACTVS_HBOND_DONOR>
2

> <PUBCHEM_CACTVS_ROTATABLE_BOND>
3

> <PUBCHEM_CACTVS_SUBSKEYS>
AAADceB7AAAAAAAAAAAAAAAAAAAAAWAAAAAwYAAAAAAAAFgB9AAAHAAQAAAADAjBHgQ+wPLJkACgAzRnRACCgCAxAiAI2aA4ZJgIIOLA0ZGEIAhgkADIyAcQgMAOgAACQAACAAAAAASAAAQAAAAAAAAAAA==

> <PUBCHEM_IUPAC_OPENEYE_NAME>
N-(1H-indol-3-ylmethyl)-3,5-dimethyl-aniline

> <PUBCHEM_IUPAC_CAS_NAME>
N-(1H-indol-3-ylmethyl)-3,5-dimethylaniline

> <PUBCHEM_IUPAC_NAME>
N-(1H-indol-3-ylmethyl)-3,5-dimethylaniline

> <PUBCHEM_IUPAC_SYSTEMATIC_NAME>
N-(1H-indol-3-ylmethyl)-3,5-dimethyl-aniline

> <PUBCHEM_IUPAC_TRADITIONAL_NAME>
(3,5-dimethylphenyl)-(1H-indol-3-ylmethyl)amine

> <PUBCHEM_IUPAC_INCHI>
InChI=1S/C17H18N2/c1-12-7-13(2)9-15(8-12)18-10-14-11-19-17-6-4-3-5-16(14)17/h3-9,11,18-19H,10H2,1-2H3

> <PUBCHEM_IUPAC_INCHIKEY>
UHQZXPRQGBAWTI-UHFFFAOYSA-N

> <PUBCHEM_XLOGP3>
4.2

> <PUBCHEM_EXACT_MASS>
250.146999

> <PUBCHEM_MOLECULAR_FORMULA>
C17H18N2

> <PUBCHEM_MOLECULAR_WEIGHT>
250.33822

> <PUBCHEM_OPENEYE_CAN_SMILES>
CC1=CC(=CC(=C1)NCC2=CNC3=CC=CC=C32)C

> <PUBCHEM_OPENEYE_ISO_SMILES>
CC1=CC(=CC(=C1)NCC2=CNC3=CC=CC=C32)C

> <PUBCHEM_CACTVS_TPSA>
27.8

> <PUBCHEM_MONOISOTOPIC_WEIGHT>
250.146999

> <PUBCHEM_TOTAL_CHARGE>
0

> <PUBCHEM_HEAVY_ATOM_COUNT>
19

> <PUBCHEM_ATOM_DEF_STEREO_COUNT>
0

> <PUBCHEM_ATOM_UDEF_STEREO_COUNT>
0

> <PUBCHEM_BOND_DEF_STEREO_COUNT>
0

> <PUBCHEM_BOND_UDEF_STEREO_COUNT>
0

> <PUBCHEM_ISOTOPIC_ATOM_COUNT>
0

> <PUBCHEM_COMPONENT_COUNT>
1

> <PUBCHEM_CACTVS_TAUTO_COUNT>
1

> <PUBCHEM_COORDINATE_TYPE>
1
5
255

> <PUBCHEM_BONDANNOTATIONS>
10  17  8
11  13  8
12  14  8
13  15  8
14  15  8
16  17  8
2  6  8
2  7  8
3  4  8
3  7  8
4  6  8
4  9  8
6  10  8
8  11  8
8  12  8
9  16  8

$$$$
23888676
  -OEChem-11301217352D

 45 47  0     0  0  0  0  0  0999 V2000
    7.9244    0.0721    0.0000 O   0  0  0  0  0  0  0  0  0  0  0  0
    6.2781    0.6101    0.0000 N   0  0  0  0  0  0  0  0  0  0  0  0
    4.6783   -3.1066    0.0000 N   0  0  0  0  0  0  0  0  0  0  0  0
    7.3610    2.7454    0.0000 C   0  0  0  0  0  0  0  0  0  0  0  0
    8.3116    2.4347    0.0000 C   0  0  0  0  0  0  0  0  0  0  0  0
    7.5673    1.7669    0.0000 C   0  0  0  0  0  0  0  0  0  0  0  0
    8.9794    1.6904    0.0000 C   0  0  0  0  0  0  0  0  0  0  0  0
    8.6222    3.3852    0.0000 C   0  0  0  0  0  0  0  0  0  0  0  0
    7.6717    3.6959    0.0000 C   0  0  0  0  0  0  0  0  0  0  0  0
    6.3825    2.5392    0.0000 C   0  0  0  0  0  0  0  0  0  0  0  0
    7.2566    0.8164    0.0000 C   0  0  0  0  0  0  0  0  0  0  0  0
    5.9674   -0.3404    0.0000 C   0  0  0  0  0  0  0  0  0  0  0  0
    4.9889   -0.5466    0.0000 C   0  0  0  0  0  0  0  0  0  0  0  0
    4.6783   -1.4971    0.0000 C   0  0  0  0  0  0  0  0  0  0  0  0
    3.7320   -1.8018    0.0000 C   0  0  0  0  0  0  0  0  0  0  0  0
    5.2619   -2.3018    0.0000 C   0  0  0  0  0  0  0  0  0  0  0  0
    3.7320   -2.8018    0.0000 C   0  0  0  0  0  0  0  0  0  0  0  0
    2.8660   -1.3018    0.0000 C   0  0  0  0  0  0  0  0  0  0  0  0
    2.8660   -3.3018    0.0000 C   0  0  0  0  0  0  0  0  0  0  0  0
    2.0000   -1.8018    0.0000 C   0  0  0  0  0  0  0  0  0  0  0  0
    2.0000   -2.8018    0.0000 C   0  0  0  0  0  0  0  0  0  0  0  0
    6.9482    1.8004    0.0000 H   0  0  0  0  0  0  0  0  0  0  0  0
    8.5180    1.2764    0.0000 H   0  0  0  0  0  0  0  0  0  0  0  0
    6.2547    3.1458    0.0000 H   0  0  0  0  0  0  0  0  0  0  0  0
    5.7759    2.4113    0.0000 H   0  0  0  0  0  0  0  0  0  0  0  0
    6.5104    1.9325    0.0000 H   0  0  0  0  0  0  0  0  0  0  0  0
    8.2610    3.5033    0.0000 H   0  0  0  0  0  0  0  0  0  0  0  0
    7.8643    4.2852    0.0000 H   0  0  0  0  0  0  0  0  0  0  0  0
    7.0824    3.8885    0.0000 H   0  0  0  0  0  0  0  0  0  0  0  0
    9.2116    3.1926    0.0000 H   0  0  0  0  0  0  0  0  0  0  0  0
    8.8148    3.9746    0.0000 H   0  0  0  0  0  0  0  0  0  0  0  0
    8.0329    3.5778    0.0000 H   0  0  0  0  0  0  0  0  0  0  0  0
    9.3935    1.2290    0.0000 H   0  0  0  0  0  0  0  0  0  0  0  0
    9.4409    2.1045    0.0000 H   0  0  0  0  0  0  0  0  0  0  0  0
    5.8640    1.0716    0.0000 H   0  0  0  0  0  0  0  0  0  0  0  0
    5.9880   -0.9600    0.0000 H   0  0  0  0  0  0  0  0  0  0  0  0
    6.5812   -0.4277    0.0000 H   0  0  0  0  0  0  0  0  0  0  0  0
    4.9684    0.0731    0.0000 H   0  0  0  0  0  0  0  0  0  0  0  0
    4.3751   -0.4592    0.0000 H   0  0  0  0  0  0  0  0  0  0  0  0
    5.8819   -2.3018    0.0000 H   0  0  0  0  0  0  0  0  0  0  0  0
    4.8709   -3.6959    0.0000 H   0  0  0  0  0  0  0  0  0  0  0  0
    2.8660   -0.6819    0.0000 H   0  0  0  0  0  0  0  0  0  0  0  0
    2.8660   -3.9218    0.0000 H   0  0  0  0  0  0  0  0  0  0  0  0
    1.4631   -1.4918    0.0000 H   0  0  0  0  0  0  0  0  0  0  0  0
    1.4631   -3.1118    0.0000 H   0  0  0  0  0  0  0  0  0  0  0  0
  1 11  2  0  0  0  0
  2 11  1  0  0  0  0
  2 12  1  0  0  0  0
  2 35  1  0  0  0  0
  3 16  1  0  0  0  0
  3 17  1  0  0  0  0
  3 41  1  0  0  0  0
  4  5  1  0  0  0  0
  4  6  1  0  0  0  0
  4  9  1  0  0  0  0
  4 10  1  0  0  0  0
  5  6  1  0  0  0  0
  5  7  1  0  0  0  0
  5  8  1  0  0  0  0
  6 11  1  0  0  0  0
  6 22  1  0  0  0  0
  7 23  1  0  0  0  0
  7 33  1  0  0  0  0
  7 34  1  0  0  0  0
  8 30  1  0  0  0  0
  8 31  1  0  0  0  0
  8 32  1  0  0  0  0
  9 27  1  0  0  0  0
  9 28  1  0  0  0  0
  9 29  1  0  0  0  0
 10 24  1  0  0  0  0
 10 25  1  0  0  0  0
 10 26  1  0  0  0  0
 12 13  1  0  0  0  0
 12 36  1  0  0  0  0
 12 37  1  0  0  0  0
 13 14  1  0  0  0  0
 13 38  1  0  0  0  0
 13 39  1  0  0  0  0
 14 15  1  0  0  0  0
 14 16  2  0  0  0  0
 15 17  1  0  0  0  0
 15 18  2  0  0  0  0
 16 40  1  0  0  0  0
 17 19  2  0  0  0  0
 18 20  1  0  0  0  0
 18 42  1  0  0  0  0
 19 21  1  0  0  0  0
 19 43  1  0  0  0  0
 20 21  2  0  0  0  0
 20 44  1  0  0  0  0
 21 45  1  0  0  0  0
M  END
> <PUBCHEM_COMPOUND_CID>
23888676

> <PUBCHEM_COMPOUND_CANONICALIZED>
1

> <PUBCHEM_CACTVS_COMPLEXITY>
401

> <PUBCHEM_CACTVS_HBOND_ACCEPTOR>
1

> <PUBCHEM_CACTVS_HBOND_DONOR>
2

> <PUBCHEM_CACTVS_ROTATABLE_BOND>
4

> <PUBCHEM_CACTVS_SUBSKEYS>
AAADceB7IAAAAAAAAAAAAAAAGAAAAWAAAAAwAAAAAAAAAFgB8AAAHgAQAAAADwjBngQ+wPLJkACoAzV3VACCgCAxAiAI2aE4ZJgIIPLAkZGEIAhglgDIyAcYgMAPgAAAAAACAAAAAAAAAAQAAAAAAAAAAA==

> <PUBCHEM_IUPAC_OPENEYE_NAME>
N-[2-(1H-indol-3-yl)ethyl]-2,2,3,3-tetramethyl-cyclopropanecarboxamide

> <PUBCHEM_IUPAC_CAS_NAME>
N-[2-(1H-indol-3-yl)ethyl]-2,2,3,3-tetramethyl-1-cyclopropanecarboxamide

> <PUBCHEM_IUPAC_NAME>
N-[2-(1H-indol-3-yl)ethyl]-2,2,3,3-tetramethylcyclopropane-1-carboxamide

> <PUBCHEM_IUPAC_SYSTEMATIC_NAME>
N-[2-(1H-indol-3-yl)ethyl]-2,2,3,3-tetramethyl-cyclopropane-1-carboxamide

> <PUBCHEM_IUPAC_TRADITIONAL_NAME>
N-[2-(1H-indol-3-yl)ethyl]-2,2,3,3-tetramethyl-cyclopropanecarboxamide

> <PUBCHEM_IUPAC_INCHI>
InChI=1S/C18H24N2O/c1-17(2)15(18(17,3)4)16(21)19-10-9-12-11-20-14-8-6-5-7-13(12)14/h5-8,11,15,20H,9-10H2,1-4H3,(H,19,21)

> <PUBCHEM_IUPAC_INCHIKEY>
OFSQCPDBQSTBSK-UHFFFAOYSA-N

> <PUBCHEM_XLOGP3>
3.9

> <PUBCHEM_EXACT_MASS>
284.188863

> <PUBCHEM_MOLECULAR_FORMULA>
C18H24N2O

> <PUBCHEM_MOLECULAR_WEIGHT>
284.39596

> <PUBCHEM_OPENEYE_CAN_SMILES>
CC1(C(C1(C)C)C(=O)NCCC2=CNC3=CC=CC=C32)C

> <PUBCHEM_OPENEYE_ISO_SMILES>
CC1(C(C1(C)C)C(=O)NCCC2=CNC3=CC=CC=C32)C

> <PUBCHEM_CACTVS_TPSA>
44.9

> <PUBCHEM_MONOISOTOPIC_WEIGHT>
284.188863

> <PUBCHEM_TOTAL_CHARGE>
0

> <PUBCHEM_HEAVY_ATOM_COUNT>
21

> <PUBCHEM_ATOM_DEF_STEREO_COUNT>
0

> <PUBCHEM_ATOM_UDEF_STEREO_COUNT>
0

> <PUBCHEM_BOND_DEF_STEREO_COUNT>
0

> <PUBCHEM_BOND_UDEF_STEREO_COUNT>
0

> <PUBCHEM_ISOTOPIC_ATOM_COUNT>
0

> <PUBCHEM_COMPONENT_COUNT>
1

> <PUBCHEM_CACTVS_TAUTO_COUNT>
2

> <PUBCHEM_COORDINATE_TYPE>
1
5
255

> <PUBCHEM_BONDANNOTATIONS>
14  15  8
14  16  8
15  17  8
15  18  8
17  19  8
18  20  8
19  21  8
20  21  8
3  16  8
3  17  8

$$$$
