16432406
  -OEChem-11301217202D

 52 53  0     0  0  0  0  0  0999 V2000
    6.3301    1.5000    0.0000 S   0  0  0  0  0  0  0  0  0  0  0  0
    4.5981   -4.5000    0.0000 O   0  0  0  0  0  0  0  0  0  0  0  0
    6.3301   -0.5000    0.0000 O   0  0  0  0  0  0  0  0  0  0  0  0
    2.0000   -2.0000    0.0000 O   0  5  0  0  0  0  0  0  0  0  0  0
    2.8660   -0.5000    0.0000 O   0  0  0  0  0  0  0  0  0  0  0  0
    4.5981   -0.5000    0.0000 N   0  0  0  0  0  0  0  0  0  0  0  0
    4.5981    4.5000    0.0000 N   0  0  0  0  0  0  0  0  0  0  0  0
    8.0622    4.5000    0.0000 N   0  0  0  0  0  0  0  0  0  0  0  0
    2.8660   -1.5000    0.0000 N   0  3  0  0  0  0  0  0  0  0  0  0
    6.3301    4.5000    0.0000 N   0  0  0  0  0  0  0  0  0  0  0  0
    7.1962    3.0000    0.0000 N   0  0  0  0  0  0  0  0  0  0  0  0
    5.4641    3.0000    0.0000 N   0  0  0  0  0  0  0  0  0  0  0  0
    4.5981   -1.5000    0.0000 C   0  0  0  0  0  0  0  0  0  0  0  0
    3.7320   -2.0000    0.0000 C   0  0  0  0  0  0  0  0  0  0  0  0
    4.5981   -3.5000    0.0000 C   0  0  0  0  0  0  0  0  0  0  0  0
    5.4641   -2.0000    0.0000 C   0  0  0  0  0  0  0  0  0  0  0  0
    3.7320   -3.0000    0.0000 C   0  0  0  0  0  0  0  0  0  0  0  0
    5.4641   -3.0000    0.0000 C   0  0  0  0  0  0  0  0  0  0  0  0
    5.4641    0.0000    0.0000 C   0  0  0  0  0  0  0  0  0  0  0  0
    5.4641    1.0000    0.0000 C   0  0  0  0  0  0  0  0  0  0  0  0
    5.4641    4.0000    0.0000 C   0  0  0  0  0  0  0  0  0  0  0  0
    7.1962    4.0000    0.0000 C   0  0  0  0  0  0  0  0  0  0  0  0
    4.5981    5.5000    0.0000 C   0  0  0  0  0  0  0  0  0  0  0  0
    8.0622    5.5000    0.0000 C   0  0  0  0  0  0  0  0  0  0  0  0
    6.3301    2.5000    0.0000 C   0  0  0  0  0  0  0  0  0  0  0  0
    5.4641   -5.0000    0.0000 C   0  0  0  0  0  0  0  0  0  0  0  0
    3.7320    6.0000    0.0000 C   0  0  0  0  0  0  0  0  0  0  0  0
    8.9282    6.0000    0.0000 C   0  0  0  0  0  0  0  0  0  0  0  0
    5.4641   -6.0000    0.0000 C   0  0  0  0  0  0  0  0  0  0  0  0
    6.0010   -1.6900    0.0000 H   0  0  0  0  0  0  0  0  0  0  0  0
    3.1951   -3.3100    0.0000 H   0  0  0  0  0  0  0  0  0  0  0  0
    6.0010   -3.3100    0.0000 H   0  0  0  0  0  0  0  0  0  0  0  0
    4.0611   -0.1900    0.0000 H   0  0  0  0  0  0  0  0  0  0  0  0
    5.2520    1.5826    0.0000 H   0  0  0  0  0  0  0  0  0  0  0  0
    4.8535    0.8923    0.0000 H   0  0  0  0  0  0  0  0  0  0  0  0
    5.2087    5.3923    0.0000 H   0  0  0  0  0  0  0  0  0  0  0  0
    4.8101    6.0826    0.0000 H   0  0  0  0  0  0  0  0  0  0  0  0
    7.8501    6.0826    0.0000 H   0  0  0  0  0  0  0  0  0  0  0  0
    7.4516    5.3923    0.0000 H   0  0  0  0  0  0  0  0  0  0  0  0
    4.0611    4.1900    0.0000 H   0  0  0  0  0  0  0  0  0  0  0  0
    8.5991    4.1900    0.0000 H   0  0  0  0  0  0  0  0  0  0  0  0
    6.0747   -5.1077    0.0000 H   0  0  0  0  0  0  0  0  0  0  0  0
    5.6762   -4.4174    0.0000 H   0  0  0  0  0  0  0  0  0  0  0  0
    4.0420    6.5369    0.0000 H   0  0  0  0  0  0  0  0  0  0  0  0
    3.1951    6.3100    0.0000 H   0  0  0  0  0  0  0  0  0  0  0  0
    3.4220    5.4631    0.0000 H   0  0  0  0  0  0  0  0  0  0  0  0
    9.2382    5.4631    0.0000 H   0  0  0  0  0  0  0  0  0  0  0  0
    9.4651    6.3100    0.0000 H   0  0  0  0  0  0  0  0  0  0  0  0
    8.6182    6.5369    0.0000 H   0  0  0  0  0  0  0  0  0  0  0  0
    4.8441   -6.0000    0.0000 H   0  0  0  0  0  0  0  0  0  0  0  0
    5.4641   -6.6200    0.0000 H   0  0  0  0  0  0  0  0  0  0  0  0
    6.0841   -6.0000    0.0000 H   0  0  0  0  0  0  0  0  0  0  0  0
  1 20  1  0  0  0  0
  1 25  1  0  0  0  0
  2 15  1  0  0  0  0
  2 26  1  0  0  0  0
  3 19  2  0  0  0  0
  4  9  1  0  0  0  0
  5  9  2  0  0  0  0
  6 13  1  0  0  0  0
  6 19  1  0  0  0  0
  6 33  1  0  0  0  0
  7 21  1  0  0  0  0
  7 23  1  0  0  0  0
  7 40  1  0  0  0  0
  8 22  1  0  0  0  0
  8 24  1  0  0  0  0
  8 41  1  0  0  0  0
  9 14  1  0  0  0  0
 10 21  2  0  0  0  0
 10 22  1  0  0  0  0
 11 22  2  0  0  0  0
 11 25  1  0  0  0  0
 12 21  1  0  0  0  0
 12 25  2  0  0  0  0
 13 14  2  0  0  0  0
 13 16  1  0  0  0  0
 14 17  1  0  0  0  0
 15 17  2  0  0  0  0
 15 18  1  0  0  0  0
 16 18  2  0  0  0  0
 16 30  1  0  0  0  0
 17 31  1  0  0  0  0
 18 32  1  0  0  0  0
 19 20  1  0  0  0  0
 20 34  1  0  0  0  0
 20 35  1  0  0  0  0
 23 27  1  0  0  0  0
 23 36  1  0  0  0  0
 23 37  1  0  0  0  0
 24 28  1  0  0  0  0
 24 38  1  0  0  0  0
 24 39  1  0  0  0  0
 26 29  1  0  0  0  0
 26 42  1  0  0  0  0
 26 43  1  0  0  0  0
 27 44  1  0  0  0  0
 27 45  1  0  0  0  0
 27 46  1  0  0  0  0
 28 47  1  0  0  0  0
 28 48  1  0  0  0  0
 28 49  1  0  0  0  0
 29 50  1  0  0  0  0
 29 51  1  0  0  0  0
 29 52  1  0  0  0  0
M  CHG  2   4  -1   9   1
M  END
> <PUBCHEM_COMPOUND_CID>
16432406

> <PUBCHEM_COMPOUND_CANONICALIZED>
1

> <PUBCHEM_CACTVS_COMPLEXITY>
511

> <PUBCHEM_CACTVS_HBOND_ACCEPTOR>
10

> <PUBCHEM_CACTVS_HBOND_DONOR>
3

> <PUBCHEM_CACTVS_ROTATABLE_BOND>
10

> <PUBCHEM_CACTVS_SUBSKEYS>
AAADceB7uABAAAAAAAAAAAAAAAAAAAAAAAA8QAAAAAAAAAABwAAAHgQUAAAACAzl0Aaz1obYVAipACVSdwCCWAlhIpApiIAOfIqMbiLEuZuWOCju1JvI6AewUAEAAEAAAgAAACAAgAAEAAAAQAAAAAAAAA==

> <PUBCHEM_IUPAC_OPENEYE_NAME>
2-[[4,6-bis(ethylamino)-1,3,5-triazin-2-yl]sulfanyl]-N-(4-ethoxy-2-nitro-phenyl)acetamide

> <PUBCHEM_IUPAC_CAS_NAME>
2-[[4,6-bis(ethylamino)-1,3,5-triazin-2-yl]thio]-N-(4-ethoxy-2-nitrophenyl)acetamide

> <PUBCHEM_IUPAC_NAME>
2-[[4,6-bis(ethylamino)-1,3,5-triazin-2-yl]sulfanyl]-N-(4-ethoxy-2-nitrophenyl)acetamide

> <PUBCHEM_IUPAC_SYSTEMATIC_NAME>
2-[[4,6-bis(ethylamino)-1,3,5-triazin-2-yl]sulfanyl]-N-(4-ethoxy-2-nitro-phenyl)ethanamide

> <PUBCHEM_IUPAC_TRADITIONAL_NAME>
2-[[4,6-bis(ethylamino)-s-triazin-2-yl]thio]-N-(4-ethoxy-2-nitro-phenyl)acetamide

> <PUBCHEM_IUPAC_INCHI>
InChI=1S/C17H23N7O4S/c1-4-18-15-21-16(19-5-2)23-17(22-15)29-10-14(25)20-12-8-7-11(28-6-3)9-13(12)24(26)27/h7-9H,4-6,10H2,1-3H3,(H,20,25)(H2,18,19,21,22,23)

> <PUBCHEM_IUPAC_INCHIKEY>
YWNKUQZAVYSCJA-UHFFFAOYSA-N

> <PUBCHEM_XLOGP3>
3.4

> <PUBCHEM_EXACT_MASS>
421.153223

> <PUBCHEM_MOLECULAR_FORMULA>
C17H23N7O4S

> <PUBCHEM_MOLECULAR_WEIGHT>
421.47402

> <PUBCHEM_OPENEYE_CAN_SMILES>
CCNC1=NC(=NC(=N1)SCC(=O)NC2=C(C=C(C=C2)OCC)[N+](=O)[O-])NCC

> <PUBCHEM_OPENEYE_ISO_SMILES>
CCNC1=NC(=NC(=N1)SCC(=O)NC2=C(C=C(C=C2)OCC)[N+](=O)[O-])NCC

> <PUBCHEM_CACTVS_TPSA>
172

> <PUBCHEM_MONOISOTOPIC_WEIGHT>
421.153223

> <PUBCHEM_TOTAL_CHARGE>
0

> <PUBCHEM_HEAVY_ATOM_COUNT>
29

> <PUBCHEM_ATOM_DEF_STEREO_COUNT>
0

> <PUBCHEM_ATOM_UDEF_STEREO_COUNT>
0

> <PUBCHEM_BOND_DEF_STEREO_COUNT>
0

> <PUBCHEM_BOND_UDEF_STEREO_COUNT>
0

> <PUBCHEM_ISOTOPIC_ATOM_COUNT>
0

> <PUBCHEM_COMPONENT_COUNT>
1

> <PUBCHEM_CACTVS_TAUTO_COUNT>
15

> <PUBCHEM_COORDINATE_TYPE>
1
5
255

> <PUBCHEM_BONDANNOTATIONS>
10  21  8
10  22  8
11  22  8
11  25  8
12  21  8
12  25  8
13  14  8
13  16  8
14  17  8
15  17  8
15  18  8
16  18  8

$$$$
16432759
  -OEChem-11301217202D

 28 28  0     1  0  0  0  0  0999 V2000
    3.7320    2.4400    0.0000 N   0  3  0  0  0  0  0  0  0  0  0  0
    5.4641   -2.5600    0.0000 N   0  0  0  0  0  0  0  0  0  0  0  0
    2.8660   -2.0600    0.0000 C   0  0  0  0  0  0  0  0  0  0  0  0
    3.7320   -1.5600    0.0000 C   0  0  3  0  0  0  0  0  0  0  0  0
    3.7320   -0.5600    0.0000 C   0  0  0  0  0  0  0  0  0  0  0  0
    2.8660   -3.0600    0.0000 C   0  0  0  0  0  0  0  0  0  0  0  0
    2.0000   -1.5600    0.0000 C   0  0  0  0  0  0  0  0  0  0  0  0
    4.5981   -0.0600    0.0000 C   0  0  0  0  0  0  0  0  0  0  0  0
    2.8660   -0.0600    0.0000 C   0  0  0  0  0  0  0  0  0  0  0  0
    3.7320    1.4400    0.0000 C   0  0  0  0  0  0  0  0  0  0  0  0
    4.5981    0.9400    0.0000 C   0  0  0  0  0  0  0  0  0  0  0  0
    2.8660    0.9400    0.0000 C   0  0  0  0  0  0  0  0  0  0  0  0
    4.5981   -2.0600    0.0000 C   0  0  0  0  0  0  0  0  0  0  0  0
    2.8660   -1.4400    0.0000 H   0  0  0  0  0  0  0  0  0  0  0  0
    3.7320   -2.1800    0.0000 H   0  0  0  0  0  0  0  0  0  0  0  0
    2.3100   -1.0231    0.0000 H   0  0  0  0  0  0  0  0  0  0  0  0
    1.4631   -1.2500    0.0000 H   0  0  0  0  0  0  0  0  0  0  0  0
    1.6900   -2.0969    0.0000 H   0  0  0  0  0  0  0  0  0  0  0  0
    2.2460   -3.0600    0.0000 H   0  0  0  0  0  0  0  0  0  0  0  0
    2.8660   -3.6800    0.0000 H   0  0  0  0  0  0  0  0  0  0  0  0
    3.4860   -3.0600    0.0000 H   0  0  0  0  0  0  0  0  0  0  0  0
    5.1350   -0.3700    0.0000 H   0  0  0  0  0  0  0  0  0  0  0  0
    2.3291   -0.3700    0.0000 H   0  0  0  0  0  0  0  0  0  0  0  0
    5.1350    1.2500    0.0000 H   0  0  0  0  0  0  0  0  0  0  0  0
    2.3291    1.2500    0.0000 H   0  0  0  0  0  0  0  0  0  0  0  0
    3.7320    3.0600    0.0000 H   0  0  0  0  0  0  0  0  0  0  0  0
    4.3520    2.4400    0.0000 H   0  0  0  0  0  0  0  0  0  0  0  0
    3.1120    2.4400    0.0000 H   0  0  0  0  0  0  0  0  0  0  0  0
  1 10  1  0  0  0  0
  1 26  1  0  0  0  0
  1 27  1  0  0  0  0
  1 28  1  0  0  0  0
  2 13  3  0  0  0  0
  3  4  1  0  0  0  0
  3  6  1  0  0  0  0
  3  7  1  0  0  0  0
  3 14  1  0  0  0  0
  4  5  1  0  0  0  0
  4 13  1  0  0  0  0
  4 15  1  0  0  0  0
  5  8  2  0  0  0  0
  5  9  1  0  0  0  0
  6 19  1  0  0  0  0
  6 20  1  0  0  0  0
  6 21  1  0  0  0  0
  7 16  1  0  0  0  0
  7 17  1  0  0  0  0
  7 18  1  0  0  0  0
  8 11  1  0  0  0  0
  8 22  1  0  0  0  0
  9 12  2  0  0  0  0
  9 23  1  0  0  0  0
 10 11  2  0  0  0  0
 10 12  1  0  0  0  0
 11 24  1  0  0  0  0
 12 25  1  0  0  0  0
M  CHG  1   1   1
M  END
> <PUBCHEM_COMPOUND_CID>
16432759

> <PUBCHEM_COMPOUND_CANONICALIZED>
1

> <PUBCHEM_CACTVS_COMPLEXITY>
193

> <PUBCHEM_CACTVS_HBOND_ACCEPTOR>
1

> <PUBCHEM_CACTVS_HBOND_DONOR>
1

> <PUBCHEM_CACTVS_ROTATABLE_BOND>
2

> <PUBCHEM_CACTVS_SUBSKEYS>
AAADccBzAAAAAAAAAAAAAAAAAAAAAAAAAAAwAAAAAAAAAAABAAAAHAAQAAAADQiBGAAywIBAAACQBiRCQACCAAAgAgAIiAAAZIgIoCKAkZGAIABgkAAIyA8QgMAOiAAAAAAAAAAQAAAAAAAAAAAAAAAAAA==

> <PUBCHEM_IUPAC_OPENEYE_NAME>
[4-(1-cyano-2-methyl-propyl)phenyl]ammonium

> <PUBCHEM_IUPAC_CAS_NAME>
[4-(1-cyano-2-methylpropyl)phenyl]ammonium

> <PUBCHEM_IUPAC_NAME>
[4-(1-cyano-2-methylpropyl)phenyl]azanium

> <PUBCHEM_IUPAC_SYSTEMATIC_NAME>
[4-(1-cyano-2-methyl-propyl)phenyl]azanium

> <PUBCHEM_IUPAC_TRADITIONAL_NAME>
[4-(1-cyano-2-methyl-propyl)phenyl]ammonium

> <PUBCHEM_IUPAC_INCHI>
InChI=1S/C11H14N2/c1-8(2)11(7-12)9-3-5-10(13)6-4-9/h3-6,8,11H,13H2,1-2H3/p+1

> <PUBCHEM_IUPAC_INCHIKEY>
YGBYYJNRQSYRBG-UHFFFAOYSA-O

> <PUBCHEM_XLOGP3>
2

> <PUBCHEM_EXACT_MASS>
175.123523

> <PUBCHEM_MOLECULAR_FORMULA>
C11H15N2+

> <PUBCHEM_MOLECULAR_WEIGHT>
175.2502

> <PUBCHEM_OPENEYE_CAN_SMILES>
CC(C)C(C#N)C1=CC=C(C=C1)[NH3+]

> <PUBCHEM_OPENEYE_ISO_SMILES>
CC(C)C(C#N)C1=CC=C(C=C1)[NH3+]

> <PUBCHEM_CACTVS_TPSA>
51.4

> <PUBCHEM_MONOISOTOPIC_WEIGHT>
175.123523

> <PUBCHEM_TOTAL_CHARGE>
1

> <PUBCHEM_HEAVY_ATOM_COUNT>
13

> <PUBCHEM_ATOM_DEF_STEREO_COUNT>
0

> <PUBCHEM_ATOM_UDEF_STEREO_COUNT>
1

> <PUBCHEM_BOND_DEF_STEREO_COUNT>
0

> <PUBCHEM_BOND_UDEF_STEREO_COUNT>
0

> <PUBCHEM_ISOTOPIC_ATOM_COUNT>
0

> <PUBCHEM_COMPONENT_COUNT>
1

> <PUBCHEM_CACTVS_TAUTO_COUNT>
1

> <PUBCHEM_COORDINATE_TYPE>
1
5
255

> <PUBCHEM_BONDANNOTATIONS>
10  11  8
10  12  8
4  13  3
5  8  8
5  9  8
8  11  8
9  12  8

$$$$
16443446
  -OEChem-11301217202D

 45 46  0     1  0  0  0  0  0999 V2000
    6.0010    3.4588    0.0000 S   0  0  0  0  0  0  0  0  0  0  0  0
    6.9716    5.9533    0.0000 S   0  0  0  0  0  0  0  0  0  0  0  0
    4.2690   -0.5412    0.0000 O   0  0  0  0  0  0  0  0  0  0  0  0
    2.5369   -2.5412    0.0000 O   0  0  0  0  0  0  0  0  0  0  0  0
    2.5369   -5.5412    0.0000 O   0  0  0  0  0  0  0  0  0  0  0  0
    3.4030   -1.0412    0.0000 O   0  0  0  0  0  0  0  0  0  0  0  0
    7.0010    3.4588    0.0000 O   0  0  0  0  0  0  0  0  0  0  0  0
    5.0010    3.4588    0.0000 O   0  0  0  0  0  0  0  0  0  0  0  0
    4.2690   -3.5412    0.0000 N   0  0  0  0  0  0  0  0  0  0  0  0
    6.0010   -0.5412    0.0000 N   0  0  0  0  0  0  0  0  0  0  0  0
    6.0010    4.4588    0.0000 N   0  0  0  0  0  0  0  0  0  0  0  0
    7.7806    4.5521    0.0000 N   0  0  0  0  0  0  0  0  0  0  0  0
    4.2690   -2.5412    0.0000 C   0  0  3  0  0  0  0  0  0  0  0  0
    5.1350   -2.0412    0.0000 C   0  0  0  0  0  0  0  0  0  0  0  0
    3.4030   -4.0412    0.0000 C   0  0  0  0  0  0  0  0  0  0  0  0
    5.1350   -1.0412    0.0000 C   0  0  0  0  0  0  0  0  0  0  0  0
    6.0010    0.4588    0.0000 C   0  0  0  0  0  0  0  0  0  0  0  0
    6.0010    2.4588    0.0000 C   0  0  0  0  0  0  0  0  0  0  0  0
    3.4030   -2.0412    0.0000 C   0  0  0  0  0  0  0  0  0  0  0  0
    6.8671    0.9588    0.0000 C   0  0  0  0  0  0  0  0  0  0  0  0
    5.1350    0.9588    0.0000 C   0  0  0  0  0  0  0  0  0  0  0  0
    3.4030   -5.0412    0.0000 C   0  0  0  0  0  0  0  0  0  0  0  0
    6.8671    1.9588    0.0000 C   0  0  0  0  0  0  0  0  0  0  0  0
    5.1350    1.9588    0.0000 C   0  0  0  0  0  0  0  0  0  0  0  0
    6.8671    4.9588    0.0000 C   0  0  0  0  0  0  0  0  0  0  0  0
    7.9497    6.1612    0.0000 C   0  0  0  0  0  0  0  0  0  0  0  0
    8.4497    5.2952    0.0000 C   0  0  0  0  0  0  0  0  0  0  0  0
    4.8059   -2.8512    0.0000 H   0  0  0  0  0  0  0  0  0  0  0  0
    5.3471   -2.6238    0.0000 H   0  0  0  0  0  0  0  0  0  0  0  0
    5.7456   -1.9336    0.0000 H   0  0  0  0  0  0  0  0  0  0  0  0
    4.8059   -3.8512    0.0000 H   0  0  0  0  0  0  0  0  0  0  0  0
    3.1909   -3.4586    0.0000 H   0  0  0  0  0  0  0  0  0  0  0  0
    2.7924   -4.1489    0.0000 H   0  0  0  0  0  0  0  0  0  0  0  0
    6.5380   -0.8512    0.0000 H   0  0  0  0  0  0  0  0  0  0  0  0
    7.4040    0.6488    0.0000 H   0  0  0  0  0  0  0  0  0  0  0  0
    4.5981    0.6488    0.0000 H   0  0  0  0  0  0  0  0  0  0  0  0
    7.4040    2.2688    0.0000 H   0  0  0  0  0  0  0  0  0  0  0  0
    4.5981    2.2688    0.0000 H   0  0  0  0  0  0  0  0  0  0  0  0
    3.6150   -5.6238    0.0000 H   0  0  0  0  0  0  0  0  0  0  0  0
    4.0135   -4.9336    0.0000 H   0  0  0  0  0  0  0  0  0  0  0  0
    5.4641    4.7688    0.0000 H   0  0  0  0  0  0  0  0  0  0  0  0
    2.0000   -2.2312    0.0000 H   0  0  0  0  0  0  0  0  0  0  0  0
    2.5369   -6.1612    0.0000 H   0  0  0  0  0  0  0  0  0  0  0  0
    8.2019    6.7276    0.0000 H   0  0  0  0  0  0  0  0  0  0  0  0
    9.0663    5.2304    0.0000 H   0  0  0  0  0  0  0  0  0  0  0  0
  1  7  2  0  0  0  0
  1  8  2  0  0  0  0
  1 11  1  0  0  0  0
  1 18  1  0  0  0  0
  2 25  1  0  0  0  0
  2 26  1  0  0  0  0
  3 16  2  0  0  0  0
  4 19  1  0  0  0  0
  4 42  1  0  0  0  0
  5 22  1  0  0  0  0
  5 43  1  0  0  0  0
  6 19  2  0  0  0  0
  9 13  1  0  0  0  0
  9 15  1  0  0  0  0
  9 31  1  0  0  0  0
 10 16  1  0  0  0  0
 10 17  1  0  0  0  0
 10 34  1  0  0  0  0
 11 25  1  0  0  0  0
 11 41  1  0  0  0  0
 12 25  2  0  0  0  0
 12 27  1  0  0  0  0
 13 14  1  0  0  0  0
 13 19  1  0  0  0  0
 13 28  1  0  0  0  0
 14 16  1  0  0  0  0
 14 29  1  0  0  0  0
 14 30  1  0  0  0  0
 15 22  1  0  0  0  0
 15 32  1  0  0  0  0
 15 33  1  0  0  0  0
 17 20  2  0  0  0  0
 17 21  1  0  0  0  0
 18 23  2  0  0  0  0
 18 24  1  0  0  0  0
 20 23  1  0  0  0  0
 20 35  1  0  0  0  0
 21 24  2  0  0  0  0
 21 36  1  0  0  0  0
 22 39  1  0  0  0  0
 22 40  1  0  0  0  0
 23 37  1  0  0  0  0
 24 38  1  0  0  0  0
 26 27  2  0  0  0  0
 26 44  1  0  0  0  0
 27 45  1  0  0  0  0
M  END
> <PUBCHEM_COMPOUND_CID>
16443446

> <PUBCHEM_COMPOUND_CANONICALIZED>
1

> <PUBCHEM_CACTVS_COMPLEXITY>
604

> <PUBCHEM_CACTVS_HBOND_ACCEPTOR>
10

> <PUBCHEM_CACTVS_HBOND_DONOR>
5

> <PUBCHEM_CACTVS_ROTATABLE_BOND>
10

> <PUBCHEM_CACTVS_SUBSKEYS>
AAADceBzuABgAAAAAAAAAAAAAAAAAWAAAAAwAAAAAAAAAAABwAAAHgQQSAAACCjl0ga92ZLIEgqsADX3fHDC8LlxCjlIyJ2YZIiKMDrA0bGEYAhklALYyCc3AAAAAAQAAAAAAAAACAAAAAAAAAAAAAAAAA==

> <PUBCHEM_IUPAC_OPENEYE_NAME>
2-(2-hydroxyethylamino)-4-oxo-4-[4-(thiazol-2-ylsulfamoyl)anilino]butanoic acid

> <PUBCHEM_IUPAC_CAS_NAME>
2-(2-hydroxyethylamino)-4-oxo-4-[4-(2-thiazolylsulfamoyl)anilino]butanoic acid

> <PUBCHEM_IUPAC_NAME>
2-(2-hydroxyethylamino)-4-oxo-4-[4-(1,3-thiazol-2-ylsulfamoyl)anilino]butanoic acid

> <PUBCHEM_IUPAC_SYSTEMATIC_NAME>
2-(2-hydroxyethylamino)-4-oxidanylidene-4-[[4-(1,3-thiazol-2-ylsulfamoyl)phenyl]amino]butanoic acid

> <PUBCHEM_IUPAC_TRADITIONAL_NAME>
2-(2-hydroxyethylamino)-4-keto-4-[4-(thiazol-2-ylsulfamoyl)anilino]butyric acid

> <PUBCHEM_IUPAC_INCHI>
InChI=1S/C15H18N4O6S2/c20-7-5-16-12(14(22)23)9-13(21)18-10-1-3-11(4-2-10)27(24,25)19-15-17-6-8-26-15/h1-4,6,8,12,16,20H,5,7,9H2,(H,17,19)(H,18,21)(H,22,23)

> <PUBCHEM_IUPAC_INCHIKEY>
KAWQMYWAGDVKLH-UHFFFAOYSA-N

> <PUBCHEM_XLOGP3>
-3.4

> <PUBCHEM_EXACT_MASS>
414.066776

> <PUBCHEM_MOLECULAR_FORMULA>
C15H18N4O6S2

> <PUBCHEM_MOLECULAR_WEIGHT>
414.45662

> <PUBCHEM_OPENEYE_CAN_SMILES>
C1=CC(=CC=C1NC(=O)CC(C(=O)O)NCCO)S(=O)(=O)NC2=NC=CS2

> <PUBCHEM_OPENEYE_ISO_SMILES>
C1=CC(=CC=C1NC(=O)CC(C(=O)O)NCCO)S(=O)(=O)NC2=NC=CS2

> <PUBCHEM_CACTVS_TPSA>
194

> <PUBCHEM_MONOISOTOPIC_WEIGHT>
414.066776

> <PUBCHEM_TOTAL_CHARGE>
0

> <PUBCHEM_HEAVY_ATOM_COUNT>
27

> <PUBCHEM_ATOM_DEF_STEREO_COUNT>
0

> <PUBCHEM_ATOM_UDEF_STEREO_COUNT>
1

> <PUBCHEM_BOND_DEF_STEREO_COUNT>
0

> <PUBCHEM_BOND_UDEF_STEREO_COUNT>
0

> <PUBCHEM_ISOTOPIC_ATOM_COUNT>
0

> <PUBCHEM_COMPONENT_COUNT>
1

> <PUBCHEM_CACTVS_TAUTO_COUNT>
6

> <PUBCHEM_COORDINATE_TYPE>
1
5
255

> <PUBCHEM_BONDANNOTATIONS>
12  25  8
12  27  8
13  14  3
17  20  8
17  21  8
18  23  8
18  24  8
2  25  8
2  26  8
20  23  8
21  24  8
26  27  8

$$$$
