20880493
  -OEChem-06121221072D

 40 42  0     1  0  0  0  0  0999 V2000
    2.8660   -4.5000    0.0000 Cl  0  0  0  0  0  0  0  0  0  0  0  0
    4.5981   -0.5000    0.0000 O   0  0  0  0  0  0  0  0  0  0  0  0
    4.5981    1.5000    0.0000 N   0  0  0  0  0  0  0  0  0  0  0  0
    2.8660   -0.5000    0.0000 N   0  0  0  0  0  0  0  0  0  0  0  0
    3.7320    1.0000    0.0000 C   0  0  3  0  0  0  0  0  0  0  0  0
    2.8660    1.5000    0.0000 C   0  0  0  0  0  0  0  0  0  0  0  0
    2.8660    2.5000    0.0000 C   0  0  0  0  0  0  0  0  0  0  0  0
    3.7320    0.0000    0.0000 C   0  0  0  0  0  0  0  0  0  0  0  0
    5.5116    1.0933    0.0000 C   0  0  0  0  0  0  0  0  0  0  0  0
    4.7026    2.4945    0.0000 C   0  0  0  0  0  0  0  0  0  0  0  0
    3.7320    3.0000    0.0000 C   0  0  0  0  0  0  0  0  0  0  0  0
    2.0000    3.0000    0.0000 C   0  0  0  0  0  0  0  0  0  0  0  0
    6.1808    1.8364    0.0000 C   0  0  0  0  0  0  0  0  0  0  0  0
    5.6808    2.7024    0.0000 C   0  0  0  0  0  0  0  0  0  0  0  0
    2.8660   -1.5000    0.0000 C   0  0  0  0  0  0  0  0  0  0  0  0
    3.7320    4.0000    0.0000 C   0  0  0  0  0  0  0  0  0  0  0  0
    2.0000    4.0000    0.0000 C   0  0  0  0  0  0  0  0  0  0  0  0
    2.8660    4.5000    0.0000 C   0  0  0  0  0  0  0  0  0  0  0  0
    2.0000   -2.0000    0.0000 C   0  0  0  0  0  0  0  0  0  0  0  0
    3.7320   -2.0000    0.0000 C   0  0  0  0  0  0  0  0  0  0  0  0
    2.0000   -3.0000    0.0000 C   0  0  0  0  0  0  0  0  0  0  0  0
    3.7320   -3.0000    0.0000 C   0  0  0  0  0  0  0  0  0  0  0  0
    2.8660   -3.5000    0.0000 C   0  0  0  0  0  0  0  0  0  0  0  0
    4.2690    0.6900    0.0000 H   0  0  0  0  0  0  0  0  0  0  0  0
    2.2554    1.6077    0.0000 H   0  0  0  0  0  0  0  0  0  0  0  0
    2.6540    0.9174    0.0000 H   0  0  0  0  0  0  0  0  0  0  0  0
    4.2419    2.9094    0.0000 H   0  0  0  0  0  0  0  0  0  0  0  0
    5.6405    0.4868    0.0000 H   0  0  0  0  0  0  0  0  0  0  0  0
    2.3291   -0.1900    0.0000 H   0  0  0  0  0  0  0  0  0  0  0  0
    4.2690    2.6900    0.0000 H   0  0  0  0  0  0  0  0  0  0  0  0
    1.4631    2.6900    0.0000 H   0  0  0  0  0  0  0  0  0  0  0  0
    5.9329    3.2688    0.0000 H   0  0  0  0  0  0  0  0  0  0  0  0
    6.7974    1.7716    0.0000 H   0  0  0  0  0  0  0  0  0  0  0  0
    4.2690    4.3100    0.0000 H   0  0  0  0  0  0  0  0  0  0  0  0
    1.4631    4.3100    0.0000 H   0  0  0  0  0  0  0  0  0  0  0  0
    2.8660    5.1200    0.0000 H   0  0  0  0  0  0  0  0  0  0  0  0
    1.4631   -1.6900    0.0000 H   0  0  0  0  0  0  0  0  0  0  0  0
    4.2690   -1.6900    0.0000 H   0  0  0  0  0  0  0  0  0  0  0  0
    1.4631   -3.3100    0.0000 H   0  0  0  0  0  0  0  0  0  0  0  0
    4.2690   -3.3100    0.0000 H   0  0  0  0  0  0  0  0  0  0  0  0
  1 23  1  0  0  0  0
  2  8  2  0  0  0  0
  3  5  1  0  0  0  0
  3  9  1  0  0  0  0
  3 10  1  0  0  0  0
  4  8  1  0  0  0  0
  4 15  1  0  0  0  0
  4 29  1  0  0  0  0
  5  6  1  0  0  0  0
  5  8  1  0  0  0  0
  5 24  1  0  0  0  0
  6  7  1  0  0  0  0
  6 25  1  0  0  0  0
  6 26  1  0  0  0  0
  7 11  2  0  0  0  0
  7 12  1  0  0  0  0
  9 13  2  0  0  0  0
  9 28  1  0  0  0  0
 10 14  2  0  0  0  0
 10 27  1  0  0  0  0
 11 16  1  0  0  0  0
 11 30  1  0  0  0  0
 12 17  2  0  0  0  0
 12 31  1  0  0  0  0
 13 14  1  0  0  0  0
 13 33  1  0  0  0  0
 14 32  1  0  0  0  0
 15 19  2  0  0  0  0
 15 20  1  0  0  0  0
 16 18  2  0  0  0  0
 16 34  1  0  0  0  0
 17 18  1  0  0  0  0
 17 35  1  0  0  0  0
 18 36  1  0  0  0  0
 19 21  1  0  0  0  0
 19 37  1  0  0  0  0
 20 22  2  0  0  0  0
 20 38  1  0  0  0  0
 21 23  2  0  0  0  0
 21 39  1  0  0  0  0
 22 23  1  0  0  0  0
 22 40  1  0  0  0  0
M  END
> <PUBCHEM_COMPOUND_CID>
20880493

> <PUBCHEM_COMPOUND_CANONICALIZED>
1

> <PUBCHEM_CACTVS_COMPLEXITY>
370

> <PUBCHEM_CACTVS_HBOND_ACCEPTOR>
1

> <PUBCHEM_CACTVS_HBOND_DONOR>
1

> <PUBCHEM_CACTVS_ROTATABLE_BOND>
5

> <PUBCHEM_CACTVS_SUBSKEYS>
AAADceB7IAAEAAAAAAAAAAAAAAAAAWAAAAAwYAAAAAAAAAAB0AAAHgIQAAAADCrBmiQ8wJPMEACoAjV3VACCgCAxByAI2CG4ZpgIYPLBk7GUIAhglADIyAcYiICOAABAAAAAAAAAAIAAAAAAAAAAAAAAAA==

> <PUBCHEM_IUPAC_OPENEYE_NAME>
N-(4-chlorophenyl)-3-phenyl-2-pyrrol-1-yl-propanamide

> <PUBCHEM_IUPAC_CAS_NAME>
N-(4-chlorophenyl)-3-phenyl-2-(1-pyrrolyl)propanamide

> <PUBCHEM_IUPAC_NAME>
N-(4-chlorophenyl)-3-phenyl-2-pyrrol-1-ylpropanamide

> <PUBCHEM_IUPAC_SYSTEMATIC_NAME>
N-(4-chlorophenyl)-3-phenyl-2-pyrrol-1-yl-propanamide

> <PUBCHEM_IUPAC_TRADITIONAL_NAME>
N-(4-chlorophenyl)-3-phenyl-2-pyrrol-1-yl-propionamide

> <PUBCHEM_IUPAC_INCHI>
InChI=1S/C19H17ClN2O/c20-16-8-10-17(11-9-16)21-19(23)18(22-12-4-5-13-22)14-15-6-2-1-3-7-15/h1-13,18H,14H2,(H,21,23)

> <PUBCHEM_IUPAC_INCHIKEY>
PUDKTDBBYLOWRQ-UHFFFAOYSA-N

> <PUBCHEM_XLOGP3>
4.3

> <PUBCHEM_EXACT_MASS>
324.102941

> <PUBCHEM_MOLECULAR_FORMULA>
C19H17ClN2O

> <PUBCHEM_MOLECULAR_WEIGHT>
324.80408

> <PUBCHEM_OPENEYE_CAN_SMILES>
C1=CC=C(C=C1)CC(C(=O)NC2=CC=C(C=C2)Cl)N3C=CC=C3

> <PUBCHEM_OPENEYE_ISO_SMILES>
C1=CC=C(C=C1)CC(C(=O)NC2=CC=C(C=C2)Cl)N3C=CC=C3

> <PUBCHEM_CACTVS_TPSA>
34

> <PUBCHEM_MONOISOTOPIC_WEIGHT>
324.102941

> <PUBCHEM_TOTAL_CHARGE>
0

> <PUBCHEM_HEAVY_ATOM_COUNT>
23

> <PUBCHEM_ATOM_DEF_STEREO_COUNT>
0

> <PUBCHEM_ATOM_UDEF_STEREO_COUNT>
1

> <PUBCHEM_BOND_DEF_STEREO_COUNT>
0

> <PUBCHEM_BOND_UDEF_STEREO_COUNT>
0

> <PUBCHEM_ISOTOPIC_ATOM_COUNT>
0

> <PUBCHEM_COMPONENT_COUNT>
1

> <PUBCHEM_CACTVS_TAUTO_COUNT>
3

> <PUBCHEM_COORDINATE_TYPE>
1
5
255

> <PUBCHEM_BONDANNOTATIONS>
10  14  8
11  16  8
12  17  8
13  14  8
15  19  8
15  20  8
16  18  8
17  18  8
19  21  8
20  22  8
21  23  8
22  23  8
3  10  8
3  9  8
5  6  3
7  11  8
7  12  8
9  13  8

$$$$
20880496
  -OEChem-06121221072D

 52 54  0     1  0  0  0  0  0999 V2000
    2.5681   -0.0222    0.0000 O   0  0  0  0  0  0  0  0  0  0  0  0
    4.1683    0.6407    0.0000 N   0  0  0  0  0  0  0  0  0  0  0  0
    3.3335   -1.8699    0.0000 N   0  0  0  0  0  0  0  0  0  0  0  0
    3.7856    1.5645    0.0000 C   0  0  0  0  0  0  0  0  0  0  0  0
    2.7856    1.5645    0.0000 C   0  0  0  0  0  0  0  0  0  0  0  0
    4.4927    2.2716    0.0000 C   0  0  0  0  0  0  0  0  0  0  0  0
    2.0785    2.2716    0.0000 C   0  0  0  0  0  0  0  0  0  0  0  0
    4.4927    3.2716    0.0000 C   0  0  0  0  0  0  0  0  0  0  0  0
    2.0785    3.2716    0.0000 C   0  0  0  0  0  0  0  0  0  0  0  0
    3.7856    3.9788    0.0000 C   0  0  0  0  0  0  0  0  0  0  0  0
    2.7856    3.9788    0.0000 C   0  0  0  0  0  0  0  0  0  0  0  0
    3.9422   -1.0766    0.0000 C   0  0  3  0  0  0  0  0  0  0  0  0
    3.5595   -0.1527    0.0000 C   0  0  0  0  0  0  0  0  0  0  0  0
    4.9337   -1.2071    0.0000 C   0  0  0  0  0  0  0  0  0  0  0  0
    5.3164   -2.1310    0.0000 C   0  0  0  0  0  0  0  0  0  0  0  0
    2.3338   -1.8438    0.0000 C   0  0  0  0  0  0  0  0  0  0  0  0
    3.6175   -2.8288    0.0000 C   0  0  0  0  0  0  0  0  0  0  0  0
    2.7934   -3.3952    0.0000 C   0  0  0  0  0  0  0  0  0  0  0  0
    2.0000   -2.7864    0.0000 C   0  0  0  0  0  0  0  0  0  0  0  0
    4.7076   -2.9243    0.0000 C   0  0  0  0  0  0  0  0  0  0  0  0
    6.3078   -2.2615    0.0000 C   0  0  0  0  0  0  0  0  0  0  0  0
    5.0903   -3.8482    0.0000 C   0  0  0  0  0  0  0  0  0  0  0  0
    6.6905   -3.1854    0.0000 C   0  0  0  0  0  0  0  0  0  0  0  0
    6.0817   -3.9788    0.0000 C   0  0  0  0  0  0  0  0  0  0  0  0
    4.3937    1.4436    0.0000 H   0  0  0  0  0  0  0  0  0  0  0  0
    4.8027    1.7347    0.0000 H   0  0  0  0  0  0  0  0  0  0  0  0
    5.0916    2.4321    0.0000 H   0  0  0  0  0  0  0  0  0  0  0  0
    2.2487    1.2545    0.0000 H   0  0  0  0  0  0  0  0  0  0  0  0
    2.9461    0.9657    0.0000 H   0  0  0  0  0  0  0  0  0  0  0  0
    5.0916    3.1112    0.0000 H   0  0  0  0  0  0  0  0  0  0  0  0
    4.8027    3.8086    0.0000 H   0  0  0  0  0  0  0  0  0  0  0  0
    1.4796    2.4321    0.0000 H   0  0  0  0  0  0  0  0  0  0  0  0
    1.7685    1.7347    0.0000 H   0  0  0  0  0  0  0  0  0  0  0  0
    4.3226    4.2888    0.0000 H   0  0  0  0  0  0  0  0  0  0  0  0
    3.6252    4.5776    0.0000 H   0  0  0  0  0  0  0  0  0  0  0  0
    1.7685    3.8086    0.0000 H   0  0  0  0  0  0  0  0  0  0  0  0
    1.4796    3.1112    0.0000 H   0  0  0  0  0  0  0  0  0  0  0  0
    2.9461    4.5776    0.0000 H   0  0  0  0  0  0  0  0  0  0  0  0
    2.2487    4.2888    0.0000 H   0  0  0  0  0  0  0  0  0  0  0  0
    4.7830    0.5597    0.0000 H   0  0  0  0  0  0  0  0  0  0  0  0
    3.3275   -0.9957    0.0000 H   0  0  0  0  0  0  0  0  0  0  0  0
    5.5390   -1.0729    0.0000 H   0  0  0  0  0  0  0  0  0  0  0  0
    4.9066   -0.5877    0.0000 H   0  0  0  0  0  0  0  0  0  0  0  0
    4.2019   -3.0357    0.0000 H   0  0  0  0  0  0  0  0  0  0  0  0
    1.9826   -1.3328    0.0000 H   0  0  0  0  0  0  0  0  0  0  0  0
    1.4055   -2.9625    0.0000 H   0  0  0  0  0  0  0  0  0  0  0  0
    2.7771   -4.0150    0.0000 H   0  0  0  0  0  0  0  0  0  0  0  0
    4.0929   -2.8434    0.0000 H   0  0  0  0  0  0  0  0  0  0  0  0
    6.6852   -1.7696    0.0000 H   0  0  0  0  0  0  0  0  0  0  0  0
    4.7128   -4.3401    0.0000 H   0  0  0  0  0  0  0  0  0  0  0  0
    7.3052   -3.2663    0.0000 H   0  0  0  0  0  0  0  0  0  0  0  0
    6.3190   -4.5516    0.0000 H   0  0  0  0  0  0  0  0  0  0  0  0
  1 13  2  0  0  0  0
  2  4  1  0  0  0  0
  2 13  1  0  0  0  0
  2 40  1  0  0  0  0
  3 12  1  0  0  0  0
  3 16  1  0  0  0  0
  3 17  1  0  0  0  0
  4  5  1  0  0  0  0
  4  6  1  0  0  0  0
  4 25  1  0  0  0  0
  5  7  1  0  0  0  0
  5 28  1  0  0  0  0
  5 29  1  0  0  0  0
  6  8  1  0  0  0  0
  6 26  1  0  0  0  0
  6 27  1  0  0  0  0
  7  9  1  0  0  0  0
  7 32  1  0  0  0  0
  7 33  1  0  0  0  0
  8 10  1  0  0  0  0
  8 30  1  0  0  0  0
  8 31  1  0  0  0  0
  9 11  1  0  0  0  0
  9 36  1  0  0  0  0
  9 37  1  0  0  0  0
 10 11  1  0  0  0  0
 10 34  1  0  0  0  0
 10 35  1  0  0  0  0
 11 38  1  0  0  0  0
 11 39  1  0  0  0  0
 12 13  1  0  0  0  0
 12 14  1  0  0  0  0
 12 41  1  0  0  0  0
 14 15  1  0  0  0  0
 14 42  1  0  0  0  0
 14 43  1  0  0  0  0
 15 20  2  0  0  0  0
 15 21  1  0  0  0  0
 16 19  2  0  0  0  0
 16 45  1  0  0  0  0
 17 18  2  0  0  0  0
 17 44  1  0  0  0  0
 18 19  1  0  0  0  0
 18 47  1  0  0  0  0
 19 46  1  0  0  0  0
 20 22  1  0  0  0  0
 20 48  1  0  0  0  0
 21 23  2  0  0  0  0
 21 49  1  0  0  0  0
 22 24  2  0  0  0  0
 22 50  1  0  0  0  0
 23 24  1  0  0  0  0
 23 51  1  0  0  0  0
 24 52  1  0  0  0  0
M  END
> <PUBCHEM_COMPOUND_CID>
20880496

> <PUBCHEM_COMPOUND_CANONICALIZED>
1

> <PUBCHEM_CACTVS_COMPLEXITY>
364

> <PUBCHEM_CACTVS_HBOND_ACCEPTOR>
1

> <PUBCHEM_CACTVS_HBOND_DONOR>
1

> <PUBCHEM_CACTVS_ROTATABLE_BOND>
5

> <PUBCHEM_CACTVS_SUBSKEYS>
AAADceB7IAAAAAAAAAAAAAAAAAAAAWAAAAAwAAAAAAAYAAABwAAAHgAQAAAADCjBmgQ8gJPMEACoAjF3VACCgCAxAiAI2KG4ZJgIYPLAkbGUIAhglgDIyAcYiICOAAAAAAAAAAAAAAAAAAAAAAAAAAAAAA==

> <PUBCHEM_IUPAC_OPENEYE_NAME>
N-cyclooctyl-3-phenyl-2-pyrrol-1-yl-propanamide

> <PUBCHEM_IUPAC_CAS_NAME>
N-cyclooctyl-3-phenyl-2-(1-pyrrolyl)propanamide

> <PUBCHEM_IUPAC_NAME>
N-cyclooctyl-3-phenyl-2-pyrrol-1-ylpropanamide

> <PUBCHEM_IUPAC_SYSTEMATIC_NAME>
N-cyclooctyl-3-phenyl-2-pyrrol-1-yl-propanamide

> <PUBCHEM_IUPAC_TRADITIONAL_NAME>
N-cyclooctyl-3-phenyl-2-pyrrol-1-yl-propionamide

> <PUBCHEM_IUPAC_INCHI>
InChI=1S/C21H28N2O/c24-21(22-19-13-7-2-1-3-8-14-19)20(23-15-9-10-16-23)17-18-11-5-4-6-12-18/h4-6,9-12,15-16,19-20H,1-3,7-8,13-14,17H2,(H,22,24)

> <PUBCHEM_IUPAC_INCHIKEY>
FJRYVUUWISVTQI-UHFFFAOYSA-N

> <PUBCHEM_XLOGP3>
5

> <PUBCHEM_EXACT_MASS>
324.220164

> <PUBCHEM_MOLECULAR_FORMULA>
C21H28N2O

> <PUBCHEM_MOLECULAR_WEIGHT>
324.45982

> <PUBCHEM_OPENEYE_CAN_SMILES>
C1CCCC(CCC1)NC(=O)C(CC2=CC=CC=C2)N3C=CC=C3

> <PUBCHEM_OPENEYE_ISO_SMILES>
C1CCCC(CCC1)NC(=O)C(CC2=CC=CC=C2)N3C=CC=C3

> <PUBCHEM_CACTVS_TPSA>
34

> <PUBCHEM_MONOISOTOPIC_WEIGHT>
324.220164

> <PUBCHEM_TOTAL_CHARGE>
0

> <PUBCHEM_HEAVY_ATOM_COUNT>
24

> <PUBCHEM_ATOM_DEF_STEREO_COUNT>
0

> <PUBCHEM_ATOM_UDEF_STEREO_COUNT>
1

> <PUBCHEM_BOND_DEF_STEREO_COUNT>
0

> <PUBCHEM_BOND_UDEF_STEREO_COUNT>
0

> <PUBCHEM_ISOTOPIC_ATOM_COUNT>
0

> <PUBCHEM_COMPONENT_COUNT>
1

> <PUBCHEM_CACTVS_TAUTO_COUNT>
2

> <PUBCHEM_COORDINATE_TYPE>
1
5
255

> <PUBCHEM_BONDANNOTATIONS>
12  14  3
15  20  8
15  21  8
16  19  8
17  18  8
18  19  8
20  22  8
21  23  8
22  24  8
23  24  8
3  16  8
3  17  8

$$$$
20880516
  -OEChem-06121221072D

 43 45  0     1  0  0  0  0  0999 V2000
    2.8660   -4.2694    0.0000 Cl  0  0  0  0  0  0  0  0  0  0  0  0
    2.8660    1.7306    0.0000 O   0  0  0  0  0  0  0  0  0  0  0  0
    4.5981    2.7306    0.0000 N   0  0  0  0  0  0  0  0  0  0  0  0
    3.7320    0.2306    0.0000 N   0  0  0  0  0  0  0  0  0  0  0  0
    4.5981    1.7306    0.0000 C   0  0  3  0  0  0  0  0  0  0  0  0
    5.4641    1.2306    0.0000 C   0  0  0  0  0  0  0  0  0  0  0  0
    3.7320    1.2306    0.0000 C   0  0  0  0  0  0  0  0  0  0  0  0
    6.3301    1.7306    0.0000 C   0  0  0  0  0  0  0  0  0  0  0  0
    5.4071    3.3184    0.0000 C   0  0  0  0  0  0  0  0  0  0  0  0
    3.7891    3.3184    0.0000 C   0  0  0  0  0  0  0  0  0  0  0  0
    2.8660   -0.2694    0.0000 C   0  0  0  0  0  0  0  0  0  0  0  0
    7.1962    1.2306    0.0000 C   0  0  0  0  0  0  0  0  0  0  0  0
    6.3301    2.7306    0.0000 C   0  0  0  0  0  0  0  0  0  0  0  0
    5.0981    4.2694    0.0000 C   0  0  0  0  0  0  0  0  0  0  0  0
    4.0981    4.2694    0.0000 C   0  0  0  0  0  0  0  0  0  0  0  0
    2.8660   -1.2694    0.0000 C   0  0  0  0  0  0  0  0  0  0  0  0
    8.0622    1.7306    0.0000 C   0  0  0  0  0  0  0  0  0  0  0  0
    7.1962    3.2306    0.0000 C   0  0  0  0  0  0  0  0  0  0  0  0
    8.0622    2.7306    0.0000 C   0  0  0  0  0  0  0  0  0  0  0  0
    2.0000   -1.7694    0.0000 C   0  0  0  0  0  0  0  0  0  0  0  0
    3.7320   -1.7694    0.0000 C   0  0  0  0  0  0  0  0  0  0  0  0
    2.0000   -2.7694    0.0000 C   0  0  0  0  0  0  0  0  0  0  0  0
    3.7320   -2.7694    0.0000 C   0  0  0  0  0  0  0  0  0  0  0  0
    2.8660   -3.2694    0.0000 C   0  0  0  0  0  0  0  0  0  0  0  0
    4.0611    2.0406    0.0000 H   0  0  0  0  0  0  0  0  0  0  0  0
    5.0656    0.7556    0.0000 H   0  0  0  0  0  0  0  0  0  0  0  0
    5.8626    0.7556    0.0000 H   0  0  0  0  0  0  0  0  0  0  0  0
    3.1994    3.1268    0.0000 H   0  0  0  0  0  0  0  0  0  0  0  0
    5.9967    3.1268    0.0000 H   0  0  0  0  0  0  0  0  0  0  0  0
    4.2690   -0.0794    0.0000 H   0  0  0  0  0  0  0  0  0  0  0  0
    2.6540    0.3132    0.0000 H   0  0  0  0  0  0  0  0  0  0  0  0
    2.2554   -0.3771    0.0000 H   0  0  0  0  0  0  0  0  0  0  0  0
    7.1962    0.6106    0.0000 H   0  0  0  0  0  0  0  0  0  0  0  0
    5.7932    3.0406    0.0000 H   0  0  0  0  0  0  0  0  0  0  0  0
    3.7336    4.7710    0.0000 H   0  0  0  0  0  0  0  0  0  0  0  0
    5.4625    4.7710    0.0000 H   0  0  0  0  0  0  0  0  0  0  0  0
    8.5991    1.4206    0.0000 H   0  0  0  0  0  0  0  0  0  0  0  0
    7.1962    3.8506    0.0000 H   0  0  0  0  0  0  0  0  0  0  0  0
    8.5991    3.0406    0.0000 H   0  0  0  0  0  0  0  0  0  0  0  0
    1.4631   -1.4594    0.0000 H   0  0  0  0  0  0  0  0  0  0  0  0
    4.2690   -1.4594    0.0000 H   0  0  0  0  0  0  0  0  0  0  0  0
    1.4631   -3.0794    0.0000 H   0  0  0  0  0  0  0  0  0  0  0  0
    4.2690   -3.0794    0.0000 H   0  0  0  0  0  0  0  0  0  0  0  0
  1 24  1  0  0  0  0
  2  7  2  0  0  0  0
  3  5  1  0  0  0  0
  3  9  1  0  0  0  0
  3 10  1  0  0  0  0
  4  7  1  0  0  0  0
  4 11  1  0  0  0  0
  4 30  1  0  0  0  0
  5  6  1  0  0  0  0
  5  7  1  0  0  0  0
  5 25  1  0  0  0  0
  6  8  1  0  0  0  0
  6 26  1  0  0  0  0
  6 27  1  0  0  0  0
  8 12  2  0  0  0  0
  8 13  1  0  0  0  0
  9 14  2  0  0  0  0
  9 29  1  0  0  0  0
 10 15  2  0  0  0  0
 10 28  1  0  0  0  0
 11 16  1  0  0  0  0
 11 31  1  0  0  0  0
 11 32  1  0  0  0  0
 12 17  1  0  0  0  0
 12 33  1  0  0  0  0
 13 18  2  0  0  0  0
 13 34  1  0  0  0  0
 14 15  1  0  0  0  0
 14 36  1  0  0  0  0
 15 35  1  0  0  0  0
 16 20  2  0  0  0  0
 16 21  1  0  0  0  0
 17 19  2  0  0  0  0
 17 37  1  0  0  0  0
 18 19  1  0  0  0  0
 18 38  1  0  0  0  0
 19 39  1  0  0  0  0
 20 22  1  0  0  0  0
 20 40  1  0  0  0  0
 21 23  2  0  0  0  0
 21 41  1  0  0  0  0
 22 24  2  0  0  0  0
 22 42  1  0  0  0  0
 23 24  1  0  0  0  0
 23 43  1  0  0  0  0
M  END
> <PUBCHEM_COMPOUND_CID>
20880516

> <PUBCHEM_COMPOUND_CANONICALIZED>
1

> <PUBCHEM_CACTVS_COMPLEXITY>
383

> <PUBCHEM_CACTVS_HBOND_ACCEPTOR>
1

> <PUBCHEM_CACTVS_HBOND_DONOR>
1

> <PUBCHEM_CACTVS_ROTATABLE_BOND>
6

> <PUBCHEM_CACTVS_SUBSKEYS>
AAADceB7IAAEAAAAAAAAAAAAAAAAAWAAAAAwYAAAAAAAAAAB0AAAHgIQAAAADCrBmiQ8gJPMEACoAjF3VACCgCAxByAI2KG4ZpgIYPLBk7GUIAhglgDIyAcYiICOBAAAAAAAAAAIAAAAAAAAAAAAAAAAAA==

> <PUBCHEM_IUPAC_OPENEYE_NAME>
N-[(4-chlorophenyl)methyl]-3-phenyl-2-pyrrol-1-yl-propanamide

> <PUBCHEM_IUPAC_CAS_NAME>
N-[(4-chlorophenyl)methyl]-3-phenyl-2-(1-pyrrolyl)propanamide

> <PUBCHEM_IUPAC_NAME>
N-[(4-chlorophenyl)methyl]-3-phenyl-2-pyrrol-1-ylpropanamide

> <PUBCHEM_IUPAC_SYSTEMATIC_NAME>
N-[(4-chlorophenyl)methyl]-3-phenyl-2-pyrrol-1-yl-propanamide

> <PUBCHEM_IUPAC_TRADITIONAL_NAME>
N-(4-chlorobenzyl)-3-phenyl-2-pyrrol-1-yl-propionamide

> <PUBCHEM_IUPAC_INCHI>
InChI=1S/C20H19ClN2O/c21-18-10-8-17(9-11-18)15-22-20(24)19(23-12-4-5-13-23)14-16-6-2-1-3-7-16/h1-13,19H,14-15H2,(H,22,24)

> <PUBCHEM_IUPAC_INCHIKEY>
CUXADADULMFJCE-UHFFFAOYSA-N

> <PUBCHEM_XLOGP3>
4.2

> <PUBCHEM_EXACT_MASS>
338.118591

> <PUBCHEM_MOLECULAR_FORMULA>
C20H19ClN2O

> <PUBCHEM_MOLECULAR_WEIGHT>
338.83066

> <PUBCHEM_OPENEYE_CAN_SMILES>
C1=CC=C(C=C1)CC(C(=O)NCC2=CC=C(C=C2)Cl)N3C=CC=C3

> <PUBCHEM_OPENEYE_ISO_SMILES>
C1=CC=C(C=C1)CC(C(=O)NCC2=CC=C(C=C2)Cl)N3C=CC=C3

> <PUBCHEM_CACTVS_TPSA>
34

> <PUBCHEM_MONOISOTOPIC_WEIGHT>
338.118591

> <PUBCHEM_TOTAL_CHARGE>
0

> <PUBCHEM_HEAVY_ATOM_COUNT>
24

> <PUBCHEM_ATOM_DEF_STEREO_COUNT>
0

> <PUBCHEM_ATOM_UDEF_STEREO_COUNT>
1

> <PUBCHEM_BOND_DEF_STEREO_COUNT>
0

> <PUBCHEM_BOND_UDEF_STEREO_COUNT>
0

> <PUBCHEM_ISOTOPIC_ATOM_COUNT>
0

> <PUBCHEM_COMPONENT_COUNT>
1

> <PUBCHEM_CACTVS_TAUTO_COUNT>
2

> <PUBCHEM_COORDINATE_TYPE>
1
5
255

> <PUBCHEM_BONDANNOTATIONS>
10  15  8
12  17  8
13  18  8
14  15  8
16  20  8
16  21  8
17  19  8
18  19  8
20  22  8
21  23  8
22  24  8
23  24  8
3  10  8
3  9  8
5  6  3
8  12  8
8  13  8
9  14  8

$$$$
20880517
  -OEChem-06121221072D

 30 31  0     0  0  0  0  0  0999 V2000
    3.7320   -3.6012    0.0000 Br  0  0  0  0  0  0  0  0  0  0  0  0
    5.4641    0.3988    0.0000 O   0  0  0  0  0  0  0  0  0  0  0  0
    5.4641    2.3988    0.0000 N   0  0  0  0  0  0  0  0  0  0  0  0
    3.7320    0.3988    0.0000 N   0  0  0  0  0  0  0  0  0  0  0  0
    4.5981    1.8988    0.0000 C   0  0  0  0  0  0  0  0  0  0  0  0
    3.7320   -0.6012    0.0000 C   0  0  0  0  0  0  0  0  0  0  0  0
    4.5981    0.8988    0.0000 C   0  0  0  0  0  0  0  0  0  0  0  0
    2.8660   -2.1012    0.0000 C   0  0  0  0  0  0  0  0  0  0  0  0
    2.8660   -1.1012    0.0000 C   0  0  0  0  0  0  0  0  0  0  0  0
    6.3776    1.9920    0.0000 C   0  0  0  0  0  0  0  0  0  0  0  0
    5.5686    3.3933    0.0000 C   0  0  0  0  0  0  0  0  0  0  0  0
    4.5981   -1.1012    0.0000 C   0  0  0  0  0  0  0  0  0  0  0  0
    3.7320   -2.6012    0.0000 C   0  0  0  0  0  0  0  0  0  0  0  0
    6.5468    3.6012    0.0000 C   0  0  0  0  0  0  0  0  0  0  0  0
    7.0468    2.7352    0.0000 C   0  0  0  0  0  0  0  0  0  0  0  0
    4.5981   -2.1012    0.0000 C   0  0  0  0  0  0  0  0  0  0  0  0
    2.0000   -2.6012    0.0000 C   0  0  0  0  0  0  0  0  0  0  0  0
    4.3860    2.4814    0.0000 H   0  0  0  0  0  0  0  0  0  0  0  0
    3.9875    1.7911    0.0000 H   0  0  0  0  0  0  0  0  0  0  0  0
    3.1951    0.7088    0.0000 H   0  0  0  0  0  0  0  0  0  0  0  0
    2.3291   -0.7912    0.0000 H   0  0  0  0  0  0  0  0  0  0  0  0
    6.5066    1.3856    0.0000 H   0  0  0  0  0  0  0  0  0  0  0  0
    5.1079    3.8082    0.0000 H   0  0  0  0  0  0  0  0  0  0  0  0
    5.1350   -0.7912    0.0000 H   0  0  0  0  0  0  0  0  0  0  0  0
    7.6634    2.6704    0.0000 H   0  0  0  0  0  0  0  0  0  0  0  0
    6.7990    4.1676    0.0000 H   0  0  0  0  0  0  0  0  0  0  0  0
    5.1350   -2.4112    0.0000 H   0  0  0  0  0  0  0  0  0  0  0  0
    1.6900   -2.0643    0.0000 H   0  0  0  0  0  0  0  0  0  0  0  0
    1.4631   -2.9112    0.0000 H   0  0  0  0  0  0  0  0  0  0  0  0
    2.3100   -3.1382    0.0000 H   0  0  0  0  0  0  0  0  0  0  0  0
  1 13  1  0  0  0  0
  2  7  2  0  0  0  0
  3  5  1  0  0  0  0
  3 10  1  0  0  0  0
  3 11  1  0  0  0  0
  4  6  1  0  0  0  0
  4  7  1  0  0  0  0
  4 20  1  0  0  0  0
  5  7  1  0  0  0  0
  5 18  1  0  0  0  0
  5 19  1  0  0  0  0
  6  9  2  0  0  0  0
  6 12  1  0  0  0  0
  8  9  1  0  0  0  0
  8 13  2  0  0  0  0
  8 17  1  0  0  0  0
  9 21  1  0  0  0  0
 10 15  2  0  0  0  0
 10 22  1  0  0  0  0
 11 14  2  0  0  0  0
 11 23  1  0  0  0  0
 12 16  2  0  0  0  0
 12 24  1  0  0  0  0
 13 16  1  0  0  0  0
 14 15  1  0  0  0  0
 14 26  1  0  0  0  0
 15 25  1  0  0  0  0
 16 27  1  0  0  0  0
 17 28  1  0  0  0  0
 17 29  1  0  0  0  0
 17 30  1  0  0  0  0
M  END
> <PUBCHEM_COMPOUND_CID>
20880517

> <PUBCHEM_COMPOUND_CANONICALIZED>
1

> <PUBCHEM_CACTVS_COMPLEXITY>
266

> <PUBCHEM_CACTVS_HBOND_ACCEPTOR>
1

> <PUBCHEM_CACTVS_HBOND_DONOR>
1

> <PUBCHEM_CACTVS_ROTATABLE_BOND>
3

> <PUBCHEM_CACTVS_SUBSKEYS>
AAADccBzIAAAEAAAAAAAAAAAAAAAAWAAAAAwAAAAAAAAAAABwAAAHgBQAAABrAjBmgQ+wJPMEACoAjV3VACCgCAxAiQI2CC4ZLgIYOLAkbGUIAhglADIyhcQgAAOAAAgQAAAgAAAAECAAAEAAAAAAAAAAA==

> <PUBCHEM_IUPAC_OPENEYE_NAME>
N-(4-bromo-3-methyl-phenyl)-2-pyrrol-1-yl-acetamide

> <PUBCHEM_IUPAC_CAS_NAME>
N-(4-bromo-3-methylphenyl)-2-(1-pyrrolyl)acetamide

> <PUBCHEM_IUPAC_NAME>
N-(4-bromo-3-methylphenyl)-2-pyrrol-1-ylacetamide

> <PUBCHEM_IUPAC_SYSTEMATIC_NAME>
N-(4-bromanyl-3-methyl-phenyl)-2-pyrrol-1-yl-ethanamide

> <PUBCHEM_IUPAC_TRADITIONAL_NAME>
N-(4-bromo-3-methyl-phenyl)-2-pyrrol-1-yl-acetamide

> <PUBCHEM_IUPAC_INCHI>
InChI=1S/C13H13BrN2O/c1-10-8-11(4-5-12(10)14)15-13(17)9-16-6-2-3-7-16/h2-8H,9H2,1H3,(H,15,17)

> <PUBCHEM_IUPAC_INCHIKEY>
SWCHMFACSXATDU-UHFFFAOYSA-N

> <PUBCHEM_XLOGP3>
3.4

> <PUBCHEM_EXACT_MASS>
292.021125

> <PUBCHEM_MOLECULAR_FORMULA>
C13H13BrN2O

> <PUBCHEM_MOLECULAR_WEIGHT>
293.15912

> <PUBCHEM_OPENEYE_CAN_SMILES>
CC1=C(C=CC(=C1)NC(=O)CN2C=CC=C2)Br

> <PUBCHEM_OPENEYE_ISO_SMILES>
CC1=C(C=CC(=C1)NC(=O)CN2C=CC=C2)Br

> <PUBCHEM_CACTVS_TPSA>
34

> <PUBCHEM_MONOISOTOPIC_WEIGHT>
292.021125

> <PUBCHEM_TOTAL_CHARGE>
0

> <PUBCHEM_HEAVY_ATOM_COUNT>
17

> <PUBCHEM_ATOM_DEF_STEREO_COUNT>
0

> <PUBCHEM_ATOM_UDEF_STEREO_COUNT>
0

> <PUBCHEM_BOND_DEF_STEREO_COUNT>
0

> <PUBCHEM_BOND_UDEF_STEREO_COUNT>
0

> <PUBCHEM_ISOTOPIC_ATOM_COUNT>
0

> <PUBCHEM_COMPONENT_COUNT>
1

> <PUBCHEM_CACTVS_TAUTO_COUNT>
3

> <PUBCHEM_COORDINATE_TYPE>
1
5
255

> <PUBCHEM_BONDANNOTATIONS>
10  15  8
11  14  8
12  16  8
13  16  8
14  15  8
3  10  8
3  11  8
6  12  8
6  9  8
8  13  8
8  9  8

$$$$
20880520
  -OEChem-06121221072D

 33 34  0     0  0  0  0  0  0999 V2000
    5.4641   -0.1012    0.0000 O   0  0  0  0  0  0  0  0  0  0  0  0
    5.4641    1.8988    0.0000 N   0  0  0  0  0  0  0  0  0  0  0  0
    3.7320   -0.1012    0.0000 N   0  0  0  0  0  0  0  0  0  0  0  0
    2.8660   -1.6012    0.0000 C   0  0  0  0  0  0  0  0  0  0  0  0
    3.7320   -1.1012    0.0000 C   0  0  0  0  0  0  0  0  0  0  0  0
    2.8660   -2.6012    0.0000 C   0  0  0  0  0  0  0  0  0  0  0  0
    4.5981    1.3988    0.0000 C   0  0  0  0  0  0  0  0  0  0  0  0
    4.5981    0.3988    0.0000 C   0  0  0  0  0  0  0  0  0  0  0  0
    4.5981   -1.6012    0.0000 C   0  0  0  0  0  0  0  0  0  0  0  0
    3.7320   -3.1012    0.0000 C   0  0  0  0  0  0  0  0  0  0  0  0
    2.0000   -1.1012    0.0000 C   0  0  0  0  0  0  0  0  0  0  0  0
    4.5981   -2.6012    0.0000 C   0  0  0  0  0  0  0  0  0  0  0  0
    2.0000   -3.1012    0.0000 C   0  0  0  0  0  0  0  0  0  0  0  0
    6.3776    1.4921    0.0000 C   0  0  0  0  0  0  0  0  0  0  0  0
    5.5686    2.8933    0.0000 C   0  0  0  0  0  0  0  0  0  0  0  0
    6.5468    3.1012    0.0000 C   0  0  0  0  0  0  0  0  0  0  0  0
    7.0468    2.2352    0.0000 C   0  0  0  0  0  0  0  0  0  0  0  0
    4.3860    1.9814    0.0000 H   0  0  0  0  0  0  0  0  0  0  0  0
    3.9875    1.2911    0.0000 H   0  0  0  0  0  0  0  0  0  0  0  0
    3.1951    0.2088    0.0000 H   0  0  0  0  0  0  0  0  0  0  0  0
    5.1350   -1.2912    0.0000 H   0  0  0  0  0  0  0  0  0  0  0  0
    3.7320   -3.7212    0.0000 H   0  0  0  0  0  0  0  0  0  0  0  0
    2.3100   -0.5643    0.0000 H   0  0  0  0  0  0  0  0  0  0  0  0
    1.4631   -0.7912    0.0000 H   0  0  0  0  0  0  0  0  0  0  0  0
    1.6900   -1.6382    0.0000 H   0  0  0  0  0  0  0  0  0  0  0  0
    5.1350   -2.9112    0.0000 H   0  0  0  0  0  0  0  0  0  0  0  0
    1.6900   -2.5643    0.0000 H   0  0  0  0  0  0  0  0  0  0  0  0
    1.4631   -3.4112    0.0000 H   0  0  0  0  0  0  0  0  0  0  0  0
    2.3100   -3.6382    0.0000 H   0  0  0  0  0  0  0  0  0  0  0  0
    6.5066    0.8856    0.0000 H   0  0  0  0  0  0  0  0  0  0  0  0
    5.1079    3.3082    0.0000 H   0  0  0  0  0  0  0  0  0  0  0  0
    7.6634    2.1704    0.0000 H   0  0  0  0  0  0  0  0  0  0  0  0
    6.7990    3.6676    0.0000 H   0  0  0  0  0  0  0  0  0  0  0  0
  1  8  2  0  0  0  0
  2  7  1  0  0  0  0
  2 14  1  0  0  0  0
  2 15  1  0  0  0  0
  3  5  1  0  0  0  0
  3  8  1  0  0  0  0
  3 20  1  0  0  0  0
  4  5  1  0  0  0  0
  4  6  2  0  0  0  0
  4 11  1  0  0  0  0
  5  9  2  0  0  0  0
  6 10  1  0  0  0  0
  6 13  1  0  0  0  0
  7  8  1  0  0  0  0
  7 18  1  0  0  0  0
  7 19  1  0  0  0  0
  9 12  1  0  0  0  0
  9 21  1  0  0  0  0
 10 12  2  0  0  0  0
 10 22  1  0  0  0  0
 11 23  1  0  0  0  0
 11 24  1  0  0  0  0
 11 25  1  0  0  0  0
 12 26  1  0  0  0  0
 13 27  1  0  0  0  0
 13 28  1  0  0  0  0
 13 29  1  0  0  0  0
 14 17  2  0  0  0  0
 14 30  1  0  0  0  0
 15 16  2  0  0  0  0
 15 31  1  0  0  0  0
 16 17  1  0  0  0  0
 16 33  1  0  0  0  0
 17 32  1  0  0  0  0
M  END
> <PUBCHEM_COMPOUND_CID>
20880520

> <PUBCHEM_COMPOUND_CANONICALIZED>
1

> <PUBCHEM_CACTVS_COMPLEXITY>
261

> <PUBCHEM_CACTVS_HBOND_ACCEPTOR>
1

> <PUBCHEM_CACTVS_HBOND_DONOR>
1

> <PUBCHEM_CACTVS_ROTATABLE_BOND>
3

> <PUBCHEM_CACTVS_SUBSKEYS>
AAADceBzIAAAAAAAAAAAAAAAAAAAAWAAAAAwAAAAAAAAAAABwAAAHgAQAAAADAjBmgQ+wJPMEACoAjV3VACCgCAxAiAI2CC4ZJgIYOLAkbGUIAhglADIyAcQgIAOgAAAQAASAAAAAACAACQAAAAAAAAAAA==

> <PUBCHEM_IUPAC_OPENEYE_NAME>
N-(2,3-dimethylphenyl)-2-pyrrol-1-yl-acetamide

> <PUBCHEM_IUPAC_CAS_NAME>
N-(2,3-dimethylphenyl)-2-(1-pyrrolyl)acetamide

> <PUBCHEM_IUPAC_NAME>
N-(2,3-dimethylphenyl)-2-pyrrol-1-ylacetamide

> <PUBCHEM_IUPAC_SYSTEMATIC_NAME>
N-(2,3-dimethylphenyl)-2-pyrrol-1-yl-ethanamide

> <PUBCHEM_IUPAC_TRADITIONAL_NAME>
N-(2,3-dimethylphenyl)-2-pyrrol-1-yl-acetamide

> <PUBCHEM_IUPAC_INCHI>
InChI=1S/C14H16N2O/c1-11-6-5-7-13(12(11)2)15-14(17)10-16-8-3-4-9-16/h3-9H,10H2,1-2H3,(H,15,17)

> <PUBCHEM_IUPAC_INCHIKEY>
NKOFIFYGLQPAPR-UHFFFAOYSA-N

> <PUBCHEM_XLOGP3>
1.9

> <PUBCHEM_EXACT_MASS>
228.126263

> <PUBCHEM_MOLECULAR_FORMULA>
C14H16N2O

> <PUBCHEM_MOLECULAR_WEIGHT>
228.28964

> <PUBCHEM_OPENEYE_CAN_SMILES>
CC1=C(C(=CC=C1)NC(=O)CN2C=CC=C2)C

> <PUBCHEM_OPENEYE_ISO_SMILES>
CC1=C(C(=CC=C1)NC(=O)CN2C=CC=C2)C

> <PUBCHEM_CACTVS_TPSA>
34

> <PUBCHEM_MONOISOTOPIC_WEIGHT>
228.126263

> <PUBCHEM_TOTAL_CHARGE>
0

> <PUBCHEM_HEAVY_ATOM_COUNT>
17

> <PUBCHEM_ATOM_DEF_STEREO_COUNT>
0

> <PUBCHEM_ATOM_UDEF_STEREO_COUNT>
0

> <PUBCHEM_BOND_DEF_STEREO_COUNT>
0

> <PUBCHEM_BOND_UDEF_STEREO_COUNT>
0

> <PUBCHEM_ISOTOPIC_ATOM_COUNT>
0

> <PUBCHEM_COMPONENT_COUNT>
1

> <PUBCHEM_CACTVS_TAUTO_COUNT>
3

> <PUBCHEM_COORDINATE_TYPE>
1
5
255

> <PUBCHEM_BONDANNOTATIONS>
10  12  8
14  17  8
15  16  8
16  17  8
2  14  8
2  15  8
4  5  8
4  6  8
5  9  8
6  10  8
9  12  8

$$$$
20880521
  -OEChem-06121221072D

 33 34  0     0  0  0  0  0  0999 V2000
    6.3301   -0.1012    0.0000 O   0  0  0  0  0  0  0  0  0  0  0  0
    6.3301    1.8988    0.0000 N   0  0  0  0  0  0  0  0  0  0  0  0
    4.5981   -0.1012    0.0000 N   0  0  0  0  0  0  0  0  0  0  0  0
    3.7320   -1.6012    0.0000 C   0  0  0  0  0  0  0  0  0  0  0  0
    4.5981   -1.1012    0.0000 C   0  0  0  0  0  0  0  0  0  0  0  0
    2.8660   -1.1012    0.0000 C   0  0  0  0  0  0  0  0  0  0  0  0
    5.4641    1.3988    0.0000 C   0  0  0  0  0  0  0  0  0  0  0  0
    5.4641    0.3988    0.0000 C   0  0  0  0  0  0  0  0  0  0  0  0
    3.7320   -2.6012    0.0000 C   0  0  0  0  0  0  0  0  0  0  0  0
    5.4641   -1.6012    0.0000 C   0  0  0  0  0  0  0  0  0  0  0  0
    2.0000   -1.6012    0.0000 C   0  0  0  0  0  0  0  0  0  0  0  0
    7.2437    1.4921    0.0000 C   0  0  0  0  0  0  0  0  0  0  0  0
    6.4347    2.8933    0.0000 C   0  0  0  0  0  0  0  0  0  0  0  0
    4.5981   -3.1012    0.0000 C   0  0  0  0  0  0  0  0  0  0  0  0
    5.4641   -2.6012    0.0000 C   0  0  0  0  0  0  0  0  0  0  0  0
    7.4128    3.1012    0.0000 C   0  0  0  0  0  0  0  0  0  0  0  0
    7.9128    2.2352    0.0000 C   0  0  0  0  0  0  0  0  0  0  0  0
    3.2646   -0.6263    0.0000 H   0  0  0  0  0  0  0  0  0  0  0  0
    2.4675   -0.6263    0.0000 H   0  0  0  0  0  0  0  0  0  0  0  0
    5.2520    1.9814    0.0000 H   0  0  0  0  0  0  0  0  0  0  0  0
    4.8535    1.2911    0.0000 H   0  0  0  0  0  0  0  0  0  0  0  0
    4.0611    0.2088    0.0000 H   0  0  0  0  0  0  0  0  0  0  0  0
    3.1951   -2.9112    0.0000 H   0  0  0  0  0  0  0  0  0  0  0  0
    6.0010   -1.2912    0.0000 H   0  0  0  0  0  0  0  0  0  0  0  0
    1.6900   -1.0643    0.0000 H   0  0  0  0  0  0  0  0  0  0  0  0
    1.4631   -1.9112    0.0000 H   0  0  0  0  0  0  0  0  0  0  0  0
    2.3100   -2.1382    0.0000 H   0  0  0  0  0  0  0  0  0  0  0  0
    7.3726    0.8856    0.0000 H   0  0  0  0  0  0  0  0  0  0  0  0
    5.9739    3.3082    0.0000 H   0  0  0  0  0  0  0  0  0  0  0  0
    4.5981   -3.7212    0.0000 H   0  0  0  0  0  0  0  0  0  0  0  0
    6.0010   -2.9112    0.0000 H   0  0  0  0  0  0  0  0  0  0  0  0
    8.5294    2.1704    0.0000 H   0  0  0  0  0  0  0  0  0  0  0  0
    7.6650    3.6676    0.0000 H   0  0  0  0  0  0  0  0  0  0  0  0
  1  8  2  0  0  0  0
  2  7  1  0  0  0  0
  2 12  1  0  0  0  0
  2 13  1  0  0  0  0
  3  5  1  0  0  0  0
  3  8  1  0  0  0  0
  3 22  1  0  0  0  0
  4  5  1  0  0  0  0
  4  6  1  0  0  0  0
  4  9  2  0  0  0  0
  5 10  2  0  0  0  0
  6 11  1  0  0  0  0
  6 18  1  0  0  0  0
  6 19  1  0  0  0  0
  7  8  1  0  0  0  0
  7 20  1  0  0  0  0
  7 21  1  0  0  0  0
  9 14  1  0  0  0  0
  9 23  1  0  0  0  0
 10 15  1  0  0  0  0
 10 24  1  0  0  0  0
 11 25  1  0  0  0  0
 11 26  1  0  0  0  0
 11 27  1  0  0  0  0
 12 17  2  0  0  0  0
 12 28  1  0  0  0  0
 13 16  2  0  0  0  0
 13 29  1  0  0  0  0
 14 15  2  0  0  0  0
 14 30  1  0  0  0  0
 15 31  1  0  0  0  0
 16 17  1  0  0  0  0
 16 33  1  0  0  0  0
 17 32  1  0  0  0  0
M  END
> <PUBCHEM_COMPOUND_CID>
20880521

> <PUBCHEM_COMPOUND_CANONICALIZED>
1

> <PUBCHEM_CACTVS_COMPLEXITY>
249

> <PUBCHEM_CACTVS_HBOND_ACCEPTOR>
1

> <PUBCHEM_CACTVS_HBOND_DONOR>
1

> <PUBCHEM_CACTVS_ROTATABLE_BOND>
4

> <PUBCHEM_CACTVS_SUBSKEYS>
AAADceBzIAAAAAAAAAAAAAAAAAAAAWAAAAAwAAAAAAAAAAABwAAAHgAQAAAADAjBmgQ+wJPMEACoAjV3VACCgCAxAiAI2CC4ZJgIYOLAkbGUIAhglADIyAcQgIAOAAAAAAACAAAAAAAAAAQAAAAAAAAAAA==

> <PUBCHEM_IUPAC_OPENEYE_NAME>
N-(2-ethylphenyl)-2-pyrrol-1-yl-acetamide

> <PUBCHEM_IUPAC_CAS_NAME>
N-(2-ethylphenyl)-2-(1-pyrrolyl)acetamide

> <PUBCHEM_IUPAC_NAME>
N-(2-ethylphenyl)-2-pyrrol-1-ylacetamide

> <PUBCHEM_IUPAC_SYSTEMATIC_NAME>
N-(2-ethylphenyl)-2-pyrrol-1-yl-ethanamide

> <PUBCHEM_IUPAC_TRADITIONAL_NAME>
N-(2-ethylphenyl)-2-pyrrol-1-yl-acetamide

> <PUBCHEM_IUPAC_INCHI>
InChI=1S/C14H16N2O/c1-2-12-7-3-4-8-13(12)15-14(17)11-16-9-5-6-10-16/h3-10H,2,11H2,1H3,(H,15,17)

> <PUBCHEM_IUPAC_INCHIKEY>
IVQKQOLELAPXJH-UHFFFAOYSA-N

> <PUBCHEM_XLOGP3>
1.9

> <PUBCHEM_EXACT_MASS>
228.126263

> <PUBCHEM_MOLECULAR_FORMULA>
C14H16N2O

> <PUBCHEM_MOLECULAR_WEIGHT>
228.28964

> <PUBCHEM_OPENEYE_CAN_SMILES>
CCC1=CC=CC=C1NC(=O)CN2C=CC=C2

> <PUBCHEM_OPENEYE_ISO_SMILES>
CCC1=CC=CC=C1NC(=O)CN2C=CC=C2

> <PUBCHEM_CACTVS_TPSA>
34

> <PUBCHEM_MONOISOTOPIC_WEIGHT>
228.126263

> <PUBCHEM_TOTAL_CHARGE>
0

> <PUBCHEM_HEAVY_ATOM_COUNT>
17

> <PUBCHEM_ATOM_DEF_STEREO_COUNT>
0

> <PUBCHEM_ATOM_UDEF_STEREO_COUNT>
0

> <PUBCHEM_BOND_DEF_STEREO_COUNT>
0

> <PUBCHEM_BOND_UDEF_STEREO_COUNT>
0

> <PUBCHEM_ISOTOPIC_ATOM_COUNT>
0

> <PUBCHEM_COMPONENT_COUNT>
1

> <PUBCHEM_CACTVS_TAUTO_COUNT>
3

> <PUBCHEM_COORDINATE_TYPE>
1
5
255

> <PUBCHEM_BONDANNOTATIONS>
10  15  8
12  17  8
13  16  8
14  15  8
16  17  8
2  12  8
2  13  8
4  5  8
4  9  8
5  10  8
9  14  8

$$$$
