14977560
  -OEChem-06111304072D

 38 40  0     0  0  0  0  0  0999 V2000
    7.1962   -0.6123    0.0000 N   0  0  0  0  0  0  0  0  0  0  0  0
    5.4641   -0.6123    0.0000 N   0  0  0  0  0  0  0  0  0  0  0  0
    6.3301   -2.1123    0.0000 N   0  0  0  0  0  0  0  0  0  0  0  0
    8.0622    0.8877    0.0000 C   0  0  0  0  0  0  0  0  0  0  0  0
    8.0622    1.8877    0.0000 C   0  0  0  0  0  0  0  0  0  0  0  0
    7.1962    0.3877    0.0000 C   0  0  0  0  0  0  0  0  0  0  0  0
    8.9561    0.3530    0.0000 C   0  0  0  0  0  0  0  0  0  0  0  0
    7.1962    2.3877    0.0000 C   0  0  0  0  0  0  0  0  0  0  0  0
    6.3301    0.8877    0.0000 C   0  0  0  0  0  0  0  0  0  0  0  0
    8.9561    2.4223    0.0000 C   0  0  0  0  0  0  0  0  0  0  0  0
    6.3301    1.8877    0.0000 C   0  0  0  0  0  0  0  0  0  0  0  0
    9.8622    0.8669    0.0000 C   0  0  0  0  0  0  0  0  0  0  0  0
    9.8622    1.9085    0.0000 C   0  0  0  0  0  0  0  0  0  0  0  0
    4.5981   -1.1123    0.0000 C   0  0  0  0  0  0  0  0  0  0  0  0
    6.3301   -1.1123    0.0000 C   0  0  0  0  0  0  0  0  0  0  0  0
    3.7320   -0.6123    0.0000 C   0  0  0  0  0  0  0  0  0  0  0  0
    3.7320    0.3877    0.0000 C   0  0  0  0  0  0  0  0  0  0  0  0
    2.8660   -1.1123    0.0000 C   0  0  0  0  0  0  0  0  0  0  0  0
    2.8660    0.8877    0.0000 C   0  0  0  0  0  0  0  0  0  0  0  0
    2.0000   -0.6123    0.0000 C   0  0  0  0  0  0  0  0  0  0  0  0
    2.0000    0.3877    0.0000 C   0  0  0  0  0  0  0  0  0  0  0  0
    8.9490   -0.2670    0.0000 H   0  0  0  0  0  0  0  0  0  0  0  0
    5.7932    0.5777    0.0000 H   0  0  0  0  0  0  0  0  0  0  0  0
    7.1962    3.0077    0.0000 H   0  0  0  0  0  0  0  0  0  0  0  0
    8.9490    3.0423    0.0000 H   0  0  0  0  0  0  0  0  0  0  0  0
    7.7331   -0.9223    0.0000 H   0  0  0  0  0  0  0  0  0  0  0  0
    5.7932    2.1977    0.0000 H   0  0  0  0  0  0  0  0  0  0  0  0
   10.3979    0.5548    0.0000 H   0  0  0  0  0  0  0  0  0  0  0  0
   10.3979    2.2205    0.0000 H   0  0  0  0  0  0  0  0  0  0  0  0
    4.1996   -1.5873    0.0000 H   0  0  0  0  0  0  0  0  0  0  0  0
    4.9966   -1.5873    0.0000 H   0  0  0  0  0  0  0  0  0  0  0  0
    4.2690    0.6977    0.0000 H   0  0  0  0  0  0  0  0  0  0  0  0
    2.8660   -1.7323    0.0000 H   0  0  0  0  0  0  0  0  0  0  0  0
    2.8660    1.5077    0.0000 H   0  0  0  0  0  0  0  0  0  0  0  0
    1.4631   -0.9223    0.0000 H   0  0  0  0  0  0  0  0  0  0  0  0
    1.4631    0.6977    0.0000 H   0  0  0  0  0  0  0  0  0  0  0  0
    5.7932   -2.4223    0.0000 H   0  0  0  0  0  0  0  0  0  0  0  0
    6.8671   -2.4223    0.0000 H   0  0  0  0  0  0  0  0  0  0  0  0
  1  6  1  0  0  0  0
  1 15  1  0  0  0  0
  1 26  1  0  0  0  0
  2 14  1  0  0  0  0
  2 15  2  0  0  0  0
  3 15  1  0  0  0  0
  3 37  1  0  0  0  0
  3 38  1  0  0  0  0
  4  5  1  0  0  0  0
  4  6  1  0  0  0  0
  4  7  2  0  0  0  0
  5  8  1  0  0  0  0
  5 10  2  0  0  0  0
  6  9  2  0  0  0  0
  7 12  1  0  0  0  0
  7 22  1  0  0  0  0
  8 11  2  0  0  0  0
  8 24  1  0  0  0  0
  9 11  1  0  0  0  0
  9 23  1  0  0  0  0
 10 13  1  0  0  0  0
 10 25  1  0  0  0  0
 11 27  1  0  0  0  0
 12 13  2  0  0  0  0
 12 28  1  0  0  0  0
 13 29  1  0  0  0  0
 14 16  1  0  0  0  0
 14 30  1  0  0  0  0
 14 31  1  0  0  0  0
 16 17  2  0  0  0  0
 16 18  1  0  0  0  0
 17 19  1  0  0  0  0
 17 32  1  0  0  0  0
 18 20  2  0  0  0  0
 18 33  1  0  0  0  0
 19 21  2  0  0  0  0
 19 34  1  0  0  0  0
 20 21  1  0  0  0  0
 20 35  1  0  0  0  0
 21 36  1  0  0  0  0
M  END
> <PUBCHEM_COMPOUND_CID>
14977560

> <PUBCHEM_COMPOUND_CANONICALIZED>
1

> <PUBCHEM_CACTVS_COMPLEXITY>
346

> <PUBCHEM_CACTVS_HBOND_ACCEPTOR>
1

> <PUBCHEM_CACTVS_HBOND_DONOR>
2

> <PUBCHEM_CACTVS_ROTATABLE_BOND>
4

> <PUBCHEM_CACTVS_SUBSKEYS>
AAADceB7AAAAAAAAAAAAAAAAAAAAAAAAAAAwYMAAAAAAAADBVAAAHAAQAAAADAjBGAQxwMLAAACgAiRCZACCAAEhAgAJiAAAZIiIICLAmZGEIAhgkAJIyCcQgIAOgAAAQAASAAAAAACAACQAAAAAAAAAAA==

> <PUBCHEM_IUPAC_OPENEYE_NAME>
2-benzyl-1-(1-naphthyl)guanidine

> <PUBCHEM_IUPAC_CAS_NAME>
1-(1-naphthalenyl)-2-(phenylmethyl)guanidine

> <PUBCHEM_IUPAC_NAME>
2-benzyl-1-naphthalen-1-ylguanidine

> <PUBCHEM_IUPAC_SYSTEMATIC_NAME>
1-naphthalen-1-yl-2-(phenylmethyl)guanidine

> <PUBCHEM_IUPAC_TRADITIONAL_NAME>
2-benzyl-1-(1-naphthyl)guanidine

> <PUBCHEM_IUPAC_INCHI>
InChI=1S/C18H17N3/c19-18(20-13-14-7-2-1-3-8-14)21-17-12-6-10-15-9-4-5-11-16(15)17/h1-12H,13H2,(H3,19,20,21)

> <PUBCHEM_IUPAC_INCHIKEY>
OVGFPYRBDZWMJI-UHFFFAOYSA-N

> <PUBCHEM_XLOGP3>
2.8

> <PUBCHEM_EXACT_MASS>
275.142248

> <PUBCHEM_MOLECULAR_FORMULA>
C18H17N3

> <PUBCHEM_MOLECULAR_WEIGHT>
275.34768

> <PUBCHEM_OPENEYE_CAN_SMILES>
C1=CC=C(C=C1)CN=C(N)NC2=CC=CC3=CC=CC=C32

> <PUBCHEM_OPENEYE_ISO_SMILES>
C1=CC=C(C=C1)CN=C(N)NC2=CC=CC3=CC=CC=C32

> <PUBCHEM_CACTVS_TPSA>
50.4

> <PUBCHEM_MONOISOTOPIC_WEIGHT>
275.142248

> <PUBCHEM_TOTAL_CHARGE>
0

> <PUBCHEM_HEAVY_ATOM_COUNT>
21

> <PUBCHEM_ATOM_DEF_STEREO_COUNT>
0

> <PUBCHEM_ATOM_UDEF_STEREO_COUNT>
0

> <PUBCHEM_BOND_DEF_STEREO_COUNT>
0

> <PUBCHEM_BOND_UDEF_STEREO_COUNT>
0

> <PUBCHEM_ISOTOPIC_ATOM_COUNT>
0

> <PUBCHEM_COMPONENT_COUNT>
1

> <PUBCHEM_CACTVS_TAUTO_COUNT>
3

> <PUBCHEM_COORDINATE_TYPE>
1
5
255

> <PUBCHEM_BONDANNOTATIONS>
10  13  8
12  13  8
16  17  8
16  18  8
17  19  8
18  20  8
19  21  8
20  21  8
4  5  8
4  6  8
4  7  8
5  10  8
5  8  8
6  9  8
7  12  8
8  11  8
9  11  8

$$$$
14977562
  -OEChem-06111304072D

 23 23  0     0  0  0  0  0  0999 V2000
    3.7320    1.7500    0.0000 N   0  0  0  0  0  0  0  0  0  0  0  0
    2.8660   -0.7500    0.0000 C   0  0  0  0  0  0  0  0  0  0  0  0
    2.0000   -1.2500    0.0000 C   0  0  0  0  0  0  0  0  0  0  0  0
    2.8660    0.2500    0.0000 C   0  0  0  0  0  0  0  0  0  0  0  0
    3.7320    0.7500    0.0000 C   0  0  0  0  0  0  0  0  0  0  0  0
    3.7320   -1.2500    0.0000 C   0  0  0  0  0  0  0  0  0  0  0  0
    4.5981    0.2500    0.0000 C   0  0  0  0  0  0  0  0  0  0  0  0
    4.5981   -0.7500    0.0000 C   0  0  0  0  0  0  0  0  0  0  0  0
    2.0000   -2.2500    0.0000 C   0  0  0  0  0  0  0  0  0  0  0  0
    4.5981    2.2500    0.0000 C   0  0  0  0  0  0  0  0  0  0  0  0
    1.7880   -0.6674    0.0000 H   0  0  0  0  0  0  0  0  0  0  0  0
    1.3894   -1.3577    0.0000 H   0  0  0  0  0  0  0  0  0  0  0  0
    2.3291    0.5600    0.0000 H   0  0  0  0  0  0  0  0  0  0  0  0
    3.7320   -1.8700    0.0000 H   0  0  0  0  0  0  0  0  0  0  0  0
    5.1350    0.5600    0.0000 H   0  0  0  0  0  0  0  0  0  0  0  0
    5.1350   -1.0600    0.0000 H   0  0  0  0  0  0  0  0  0  0  0  0
    1.3800   -2.2500    0.0000 H   0  0  0  0  0  0  0  0  0  0  0  0
    2.0000   -2.8700    0.0000 H   0  0  0  0  0  0  0  0  0  0  0  0
    2.6200   -2.2500    0.0000 H   0  0  0  0  0  0  0  0  0  0  0  0
    3.1951    2.0600    0.0000 H   0  0  0  0  0  0  0  0  0  0  0  0
    4.9081    1.7131    0.0000 H   0  0  0  0  0  0  0  0  0  0  0  0
    5.1350    2.5600    0.0000 H   0  0  0  0  0  0  0  0  0  0  0  0
    4.2881    2.7869    0.0000 H   0  0  0  0  0  0  0  0  0  0  0  0
  1  5  1  0  0  0  0
  1 10  1  0  0  0  0
  1 20  1  0  0  0  0
  2  3  1  0  0  0  0
  2  4  2  0  0  0  0
  2  6  1  0  0  0  0
  3  9  1  0  0  0  0
  3 11  1  0  0  0  0
  3 12  1  0  0  0  0
  4  5  1  0  0  0  0
  4 13  1  0  0  0  0
  5  7  2  0  0  0  0
  6  8  2  0  0  0  0
  6 14  1  0  0  0  0
  7  8  1  0  0  0  0
  7 15  1  0  0  0  0
  8 16  1  0  0  0  0
  9 17  1  0  0  0  0
  9 18  1  0  0  0  0
  9 19  1  0  0  0  0
 10 21  1  0  0  0  0
 10 22  1  0  0  0  0
 10 23  1  0  0  0  0
M  END
> <PUBCHEM_COMPOUND_CID>
14977562

> <PUBCHEM_COMPOUND_CANONICALIZED>
1

> <PUBCHEM_CACTVS_COMPLEXITY>
90.7

> <PUBCHEM_CACTVS_HBOND_ACCEPTOR>
1

> <PUBCHEM_CACTVS_HBOND_DONOR>
1

> <PUBCHEM_CACTVS_ROTATABLE_BOND>
2

> <PUBCHEM_CACTVS_SUBSKEYS>
AAADccByAAAAAAAAAAAAAAAAAAAAAAAAAAAwAAAAAAAAAAABAAAAHAAQAAAADAiBGAQywILAAACAAiRCQACCAAAhAgAIiIAIZIgIICLAkZGEIAhgkABIyAcQgIAOAAAAQAAAAAAAAACAAAAAAAAAAAAAAA==

> <PUBCHEM_IUPAC_OPENEYE_NAME>
3-ethyl-N-methyl-aniline

> <PUBCHEM_IUPAC_CAS_NAME>
3-ethyl-N-methylaniline

> <PUBCHEM_IUPAC_NAME>
3-ethyl-N-methylaniline

> <PUBCHEM_IUPAC_SYSTEMATIC_NAME>
3-ethyl-N-methyl-aniline

> <PUBCHEM_IUPAC_TRADITIONAL_NAME>
(3-ethylphenyl)-methyl-amine

> <PUBCHEM_IUPAC_INCHI>
InChI=1S/C9H13N/c1-3-8-5-4-6-9(7-8)10-2/h4-7,10H,3H2,1-2H3

> <PUBCHEM_IUPAC_INCHIKEY>
MHZZQJHAYDHFGH-UHFFFAOYSA-N

> <PUBCHEM_XLOGP3>
2.7

> <PUBCHEM_EXACT_MASS>
135.104799

> <PUBCHEM_MOLECULAR_FORMULA>
C9H13N

> <PUBCHEM_MOLECULAR_WEIGHT>
135.20622

> <PUBCHEM_OPENEYE_CAN_SMILES>
CCC1=CC(=CC=C1)NC

> <PUBCHEM_OPENEYE_ISO_SMILES>
CCC1=CC(=CC=C1)NC

> <PUBCHEM_CACTVS_TPSA>
12

> <PUBCHEM_MONOISOTOPIC_WEIGHT>
135.104799

> <PUBCHEM_TOTAL_CHARGE>
0

> <PUBCHEM_HEAVY_ATOM_COUNT>
10

> <PUBCHEM_ATOM_DEF_STEREO_COUNT>
0

> <PUBCHEM_ATOM_UDEF_STEREO_COUNT>
0

> <PUBCHEM_BOND_DEF_STEREO_COUNT>
0

> <PUBCHEM_BOND_UDEF_STEREO_COUNT>
0

> <PUBCHEM_ISOTOPIC_ATOM_COUNT>
0

> <PUBCHEM_COMPONENT_COUNT>
1

> <PUBCHEM_CACTVS_TAUTO_COUNT>
1

> <PUBCHEM_COORDINATE_TYPE>
1
5
255

> <PUBCHEM_BONDANNOTATIONS>
2  4  8
2  6  8
4  5  8
5  7  8
6  8  8
7  8  8

$$$$
14985081
  -OEChem-06111304072D

 26 27  0     0  0  0  0  0  0999 V2000
    2.0000   -3.2500    0.0000 F   0  0  0  0  0  0  0  0  0  0  0  0
    2.8660    0.2500    0.0000 C   0  0  0  0  0  0  0  0  0  0  0  0
    2.8660    1.2500    0.0000 C   0  0  0  0  0  0  0  0  0  0  0  0
    2.0000   -0.2500    0.0000 C   0  0  0  0  0  0  0  0  0  0  0  0
    3.7320   -0.2500    0.0000 C   0  0  0  0  0  0  0  0  0  0  0  0
    2.8660   -1.7500    0.0000 C   0  0  0  0  0  0  0  0  0  0  0  0
    2.0000   -1.2500    0.0000 C   0  0  0  0  0  0  0  0  0  0  0  0
    3.7320   -1.2500    0.0000 C   0  0  0  0  0  0  0  0  0  0  0  0
    3.7320    1.7500    0.0000 C   0  0  0  0  0  0  0  0  0  0  0  0
    2.0000    1.7500    0.0000 C   0  0  0  0  0  0  0  0  0  0  0  0
    3.7320    2.7500    0.0000 C   0  0  0  0  0  0  0  0  0  0  0  0
    2.0000    2.7500    0.0000 C   0  0  0  0  0  0  0  0  0  0  0  0
    2.8660    3.2500    0.0000 C   0  0  0  0  0  0  0  0  0  0  0  0
    2.8660   -2.7500    0.0000 C   0  0  0  0  0  0  0  0  0  0  0  0
    3.7320   -3.2500    0.0000 C   0  0  0  0  0  0  0  0  0  0  0  0
    1.4631    0.0600    0.0000 H   0  0  0  0  0  0  0  0  0  0  0  0
    4.2690    0.0600    0.0000 H   0  0  0  0  0  0  0  0  0  0  0  0
    1.4631   -1.5600    0.0000 H   0  0  0  0  0  0  0  0  0  0  0  0
    4.2690   -1.5600    0.0000 H   0  0  0  0  0  0  0  0  0  0  0  0
    4.2690    1.4400    0.0000 H   0  0  0  0  0  0  0  0  0  0  0  0
    1.4631    1.4400    0.0000 H   0  0  0  0  0  0  0  0  0  0  0  0
    4.2690    3.0600    0.0000 H   0  0  0  0  0  0  0  0  0  0  0  0
    1.4631    3.0600    0.0000 H   0  0  0  0  0  0  0  0  0  0  0  0
    2.8660    3.8700    0.0000 H   0  0  0  0  0  0  0  0  0  0  0  0
    3.7320   -3.8700    0.0000 H   0  0  0  0  0  0  0  0  0  0  0  0
    4.2690   -2.9400    0.0000 H   0  0  0  0  0  0  0  0  0  0  0  0
  1 14  1  0  0  0  0
  2  3  1  0  0  0  0
  2  4  2  0  0  0  0
  2  5  1  0  0  0  0
  3  9  2  0  0  0  0
  3 10  1  0  0  0  0
  4  7  1  0  0  0  0
  4 16  1  0  0  0  0
  5  8  2  0  0  0  0
  5 17  1  0  0  0  0
  6  7  2  0  0  0  0
  6  8  1  0  0  0  0
  6 14  1  0  0  0  0
  7 18  1  0  0  0  0
  8 19  1  0  0  0  0
  9 11  1  0  0  0  0
  9 20  1  0  0  0  0
 10 12  2  0  0  0  0
 10 21  1  0  0  0  0
 11 13  2  0  0  0  0
 11 22  1  0  0  0  0
 12 13  1  0  0  0  0
 12 23  1  0  0  0  0
 13 24  1  0  0  0  0
 14 15  2  0  0  0  0
 15 25  1  0  0  0  0
 15 26  1  0  0  0  0
M  END
> <PUBCHEM_COMPOUND_CID>
14985081

> <PUBCHEM_COMPOUND_CANONICALIZED>
1

> <PUBCHEM_CACTVS_COMPLEXITY>
207

> <PUBCHEM_CACTVS_HBOND_ACCEPTOR>
1

> <PUBCHEM_CACTVS_HBOND_DONOR>
0

> <PUBCHEM_CACTVS_ROTATABLE_BOND>
2

> <PUBCHEM_CACTVS_SUBSKEYS>
AAADccBwAQAAAAAAAAAAAAAAAAAAAAAAAAAwYAAAAAAAAAABQAAAGQAAAAAADACAGAAwAIAAAACAAiBCAAACAAAgAAAIiAAAAIgIICKAERCAIAAggAAIiAcAgMAOwAAAAAAAAACAAAAAAAAAAAAAAAAAAA==

> <PUBCHEM_IUPAC_OPENEYE_NAME>
1-(1-fluorovinyl)-4-phenyl-benzene

> <PUBCHEM_IUPAC_CAS_NAME>
1-(1-fluoroethenyl)-4-phenylbenzene

> <PUBCHEM_IUPAC_NAME>
1-(1-fluoroethenyl)-4-phenylbenzene

> <PUBCHEM_IUPAC_SYSTEMATIC_NAME>
1-(1-fluoranylethenyl)-4-phenyl-benzene

> <PUBCHEM_IUPAC_TRADITIONAL_NAME>
1-(1-fluorovinyl)-4-phenyl-benzene

> <PUBCHEM_IUPAC_INCHI>
InChI=1S/C14H11F/c1-11(15)12-7-9-14(10-8-12)13-5-3-2-4-6-13/h2-10H,1H2

> <PUBCHEM_IUPAC_INCHIKEY>
RIMAWTVNNZEFQO-UHFFFAOYSA-N

> <PUBCHEM_XLOGP3>
4.9

> <PUBCHEM_EXACT_MASS>
198.084479

> <PUBCHEM_MOLECULAR_FORMULA>
C14H11F

> <PUBCHEM_MOLECULAR_WEIGHT>
198.235543

> <PUBCHEM_OPENEYE_CAN_SMILES>
C=C(C1=CC=C(C=C1)C2=CC=CC=C2)F

> <PUBCHEM_OPENEYE_ISO_SMILES>
C=C(C1=CC=C(C=C1)C2=CC=CC=C2)F

> <PUBCHEM_CACTVS_TPSA>
0

> <PUBCHEM_MONOISOTOPIC_WEIGHT>
198.084479

> <PUBCHEM_TOTAL_CHARGE>
0

> <PUBCHEM_HEAVY_ATOM_COUNT>
15

> <PUBCHEM_ATOM_DEF_STEREO_COUNT>
0

> <PUBCHEM_ATOM_UDEF_STEREO_COUNT>
0

> <PUBCHEM_BOND_DEF_STEREO_COUNT>
0

> <PUBCHEM_BOND_UDEF_STEREO_COUNT>
0

> <PUBCHEM_ISOTOPIC_ATOM_COUNT>
0

> <PUBCHEM_COMPONENT_COUNT>
1

> <PUBCHEM_CACTVS_TAUTO_COUNT>
1

> <PUBCHEM_COORDINATE_TYPE>
1
5
255

> <PUBCHEM_BONDANNOTATIONS>
10  12  8
11  13  8
12  13  8
2  4  8
2  5  8
3  10  8
3  9  8
4  7  8
5  8  8
6  7  8
6  8  8
9  11  8

$$$$
14985840
  -OEChem-06111304072D

 33 35  0     0  0  0  0  0  0999 V2000
    3.5827   -2.6488    0.0000 N   0  0  0  0  0  0  0  0  0  0  0  0
    4.4487   -2.1488    0.0000 C   0  0  0  0  0  0  0  0  0  0  0  0
    4.4487   -1.1488    0.0000 C   0  0  0  0  0  0  0  0  0  0  0  0
    4.4487    0.8512    0.0000 C   0  0  0  0  0  0  0  0  0  0  0  0
    5.3147   -0.6488    0.0000 C   0  0  0  0  0  0  0  0  0  0  0  0
    3.5827   -0.6488    0.0000 C   0  0  0  0  0  0  0  0  0  0  0  0
    5.3147    0.3512    0.0000 C   0  0  0  0  0  0  0  0  0  0  0  0
    3.5827    0.3512    0.0000 C   0  0  0  0  0  0  0  0  0  0  0  0
    4.4487    1.8512    0.0000 C   0  0  0  0  0  0  0  0  0  0  0  0
    2.6691   -2.2420    0.0000 C   0  0  0  0  0  0  0  0  0  0  0  0
    3.4782   -3.6433    0.0000 C   0  0  0  0  0  0  0  0  0  0  0  0
    2.5000   -3.8512    0.0000 C   0  0  0  0  0  0  0  0  0  0  0  0
    2.0000   -2.9852    0.0000 C   0  0  0  0  0  0  0  0  0  0  0  0
    3.5827    2.3512    0.0000 C   0  0  0  0  0  0  0  0  0  0  0  0
    5.3147    2.3512    0.0000 C   0  0  0  0  0  0  0  0  0  0  0  0
    3.5827    3.3512    0.0000 C   0  0  0  0  0  0  0  0  0  0  0  0
    5.3147    3.3512    0.0000 C   0  0  0  0  0  0  0  0  0  0  0  0
    4.4487    3.8512    0.0000 C   0  0  0  0  0  0  0  0  0  0  0  0
    4.6608   -2.7314    0.0000 H   0  0  0  0  0  0  0  0  0  0  0  0
    5.0593   -2.0411    0.0000 H   0  0  0  0  0  0  0  0  0  0  0  0
    5.8517   -0.9588    0.0000 H   0  0  0  0  0  0  0  0  0  0  0  0
    3.0457   -0.9588    0.0000 H   0  0  0  0  0  0  0  0  0  0  0  0
    5.8517    0.6612    0.0000 H   0  0  0  0  0  0  0  0  0  0  0  0
    3.0457    0.6612    0.0000 H   0  0  0  0  0  0  0  0  0  0  0  0
    2.5402   -1.6356    0.0000 H   0  0  0  0  0  0  0  0  0  0  0  0
    3.9389   -4.0582    0.0000 H   0  0  0  0  0  0  0  0  0  0  0  0
    1.3834   -2.9204    0.0000 H   0  0  0  0  0  0  0  0  0  0  0  0
    2.2478   -4.4176    0.0000 H   0  0  0  0  0  0  0  0  0  0  0  0
    3.0457    2.0412    0.0000 H   0  0  0  0  0  0  0  0  0  0  0  0
    5.8517    2.0412    0.0000 H   0  0  0  0  0  0  0  0  0  0  0  0
    3.0457    3.6612    0.0000 H   0  0  0  0  0  0  0  0  0  0  0  0
    5.8517    3.6612    0.0000 H   0  0  0  0  0  0  0  0  0  0  0  0
    4.4487    4.4712    0.0000 H   0  0  0  0  0  0  0  0  0  0  0  0
  1  2  1  0  0  0  0
  1 10  1  0  0  0  0
  1 11  1  0  0  0  0
  2  3  1  0  0  0  0
  2 19  1  0  0  0  0
  2 20  1  0  0  0  0
  3  5  2  0  0  0  0
  3  6  1  0  0  0  0
  4  7  2  0  0  0  0
  4  8  1  0  0  0  0
  4  9  1  0  0  0  0
  5  7  1  0  0  0  0
  5 21  1  0  0  0  0
  6  8  2  0  0  0  0
  6 22  1  0  0  0  0
  7 23  1  0  0  0  0
  8 24  1  0  0  0  0
  9 14  2  0  0  0  0
  9 15  1  0  0  0  0
 10 13  2  0  0  0  0
 10 25  1  0  0  0  0
 11 12  2  0  0  0  0
 11 26  1  0  0  0  0
 12 13  1  0  0  0  0
 12 28  1  0  0  0  0
 13 27  1  0  0  0  0
 14 16  1  0  0  0  0
 14 29  1  0  0  0  0
 15 17  2  0  0  0  0
 15 30  1  0  0  0  0
 16 18  2  0  0  0  0
 16 31  1  0  0  0  0
 17 18  1  0  0  0  0
 17 32  1  0  0  0  0
 18 33  1  0  0  0  0
M  END
> <PUBCHEM_COMPOUND_CID>
14985840

> <PUBCHEM_COMPOUND_CANONICALIZED>
1

> <PUBCHEM_CACTVS_COMPLEXITY>
230

> <PUBCHEM_CACTVS_HBOND_ACCEPTOR>
0

> <PUBCHEM_CACTVS_HBOND_DONOR>
0

> <PUBCHEM_CACTVS_ROTATABLE_BOND>
3

> <PUBCHEM_CACTVS_SUBSKEYS>
AAADccB6AAAAAAAAAAAAAAAAAAAAAWAAAAAwYAAAAAAAAAAB0AAAHAAAAAAADADBGgQ8gJMMEACgAjBnRACCgCAxAiAI2CA4ZJgIIOLAkZGEIAhggADIyAcQgMAOwAAAAAAAAACAAAAAAAAAAAAAAAAAAA==

> <PUBCHEM_IUPAC_OPENEYE_NAME>
1-[(4-phenylphenyl)methyl]pyrrole

> <PUBCHEM_IUPAC_CAS_NAME>
1-[(4-phenylphenyl)methyl]pyrrole

> <PUBCHEM_IUPAC_NAME>
1-[(4-phenylphenyl)methyl]pyrrole

> <PUBCHEM_IUPAC_SYSTEMATIC_NAME>
1-[(4-phenylphenyl)methyl]pyrrole

> <PUBCHEM_IUPAC_TRADITIONAL_NAME>
1-(4-phenylbenzyl)pyrrole

> <PUBCHEM_IUPAC_INCHI>
InChI=1S/C17H15N/c1-2-6-16(7-3-1)17-10-8-15(9-11-17)14-18-12-4-5-13-18/h1-13H,14H2

> <PUBCHEM_IUPAC_INCHIKEY>
LQWZTONCJWIWOA-UHFFFAOYSA-N

> <PUBCHEM_XLOGP3>
4.3

> <PUBCHEM_EXACT_MASS>
233.120449

> <PUBCHEM_MOLECULAR_FORMULA>
C17H15N

> <PUBCHEM_MOLECULAR_WEIGHT>
233.3077

> <PUBCHEM_OPENEYE_CAN_SMILES>
C1=CC=C(C=C1)C2=CC=C(C=C2)CN3C=CC=C3

> <PUBCHEM_OPENEYE_ISO_SMILES>
C1=CC=C(C=C1)C2=CC=C(C=C2)CN3C=CC=C3

> <PUBCHEM_CACTVS_TPSA>
4.9

> <PUBCHEM_MONOISOTOPIC_WEIGHT>
233.120449

> <PUBCHEM_TOTAL_CHARGE>
0

> <PUBCHEM_HEAVY_ATOM_COUNT>
18

> <PUBCHEM_ATOM_DEF_STEREO_COUNT>
0

> <PUBCHEM_ATOM_UDEF_STEREO_COUNT>
0

> <PUBCHEM_BOND_DEF_STEREO_COUNT>
0

> <PUBCHEM_BOND_UDEF_STEREO_COUNT>
0

> <PUBCHEM_ISOTOPIC_ATOM_COUNT>
0

> <PUBCHEM_COMPONENT_COUNT>
1

> <PUBCHEM_CACTVS_TAUTO_COUNT>
1

> <PUBCHEM_COORDINATE_TYPE>
1
5
255

> <PUBCHEM_BONDANNOTATIONS>
1  10  8
1  11  8
10  13  8
11  12  8
12  13  8
14  16  8
15  17  8
16  18  8
17  18  8
3  5  8
3  6  8
4  7  8
4  8  8
5  7  8
6  8  8
9  14  8
9  15  8

$$$$
14986113
  -OEChem-06111304072D

 55 57  0     1  0  0  0  0  0999 V2000
    3.7320   -0.6900    0.0000 P   0  0  0  0  0  0  0  0  0  0  0  0
    3.4503    0.7124    0.0000 F   0  0  0  0  0  0  0  0  0  0  0  0
    2.8527    1.9941    0.0000 F   0  0  0  0  0  0  0  0  0  0  0  0
    4.1345    2.5918    0.0000 F   0  0  0  0  0  0  0  0  0  0  0  0
    3.7320   -1.6900    0.0000 O   0  0  0  0  0  0  0  0  0  0  0  0
    2.8660   -0.1900    0.0000 O   0  0  0  0  0  0  0  0  0  0  0  0
    4.2320    0.1760    0.0000 O   0  0  0  0  0  0  0  0  0  0  0  0
    8.1962   -0.6900    0.0000 O   0  0  0  0  0  0  0  0  0  0  0  0
    7.3301    0.8100    0.0000 O   0  0  0  0  0  0  0  0  0  0  0  0
    9.9282   -1.6900    0.0000 O   0  0  0  0  0  0  0  0  0  0  0  0
    5.5981   -2.1900    0.0000 N   0  0  0  0  0  0  0  0  0  0  0  0
    5.5981   -0.1900    0.0000 C   0  0  3  0  0  0  0  0  0  0  0  0
    4.7320   -0.6900    0.0000 C   0  0  0  0  0  0  0  0  0  0  0  0
    6.4641   -0.6900    0.0000 C   0  0  0  0  0  0  0  0  0  0  0  0
    4.7320   -1.6900    0.0000 C   0  0  0  0  0  0  0  0  0  0  0  0
    5.5981    0.8100    0.0000 C   0  0  0  0  0  0  0  0  0  0  0  0
    6.4641   -1.6900    0.0000 C   0  0  0  0  0  0  0  0  0  0  0  0
    2.0000   -1.6900    0.0000 C   0  0  0  0  0  0  0  0  0  0  0  0
    4.7320    1.3100    0.0000 C   0  0  0  0  0  0  0  0  0  0  0  0
    2.0000   -0.6900    0.0000 C   0  0  0  0  0  0  0  0  0  0  0  0
    2.8660   -2.1899    0.0000 C   0  0  0  0  0  0  0  0  0  0  0  0
    4.2320   -2.5560    0.0000 C   0  0  0  0  0  0  0  0  0  0  0  0
    6.4641    1.3100    0.0000 C   0  0  0  0  0  0  0  0  0  0  0  0
    7.3301   -0.1900    0.0000 C   0  0  0  0  0  0  0  0  0  0  0  0
    7.3301   -2.1900    0.0000 C   0  0  0  0  0  0  0  0  0  0  0  0
    4.7320    2.3100    0.0000 C   0  0  0  0  0  0  0  0  0  0  0  0
    3.7924    1.6522    0.0000 C   0  0  0  0  0  0  0  0  0  0  0  0
    6.4641    2.3100    0.0000 C   0  0  0  0  0  0  0  0  0  0  0  0
    5.5981    2.8100    0.0000 C   0  0  0  0  0  0  0  0  0  0  0  0
    9.0622   -0.1900    0.0000 C   0  0  0  0  0  0  0  0  0  0  0  0
    9.9282   -0.6900    0.0000 C   0  0  0  0  0  0  0  0  0  0  0  0
   10.7942   -0.1900    0.0000 C   0  0  0  0  0  0  0  0  0  0  0  0
    6.1350    0.1200    0.0000 H   0  0  0  0  0  0  0  0  0  0  0  0
    5.5981   -2.8100    0.0000 H   0  0  0  0  0  0  0  0  0  0  0  0
    1.3894   -1.5823    0.0000 H   0  0  0  0  0  0  0  0  0  0  0  0
    1.7880   -2.2726    0.0000 H   0  0  0  0  0  0  0  0  0  0  0  0
    1.7880   -0.1074    0.0000 H   0  0  0  0  0  0  0  0  0  0  0  0
    1.3894   -0.7977    0.0000 H   0  0  0  0  0  0  0  0  0  0  0  0
    2.4674   -2.6649    0.0000 H   0  0  0  0  0  0  0  0  0  0  0  0
    3.2645   -2.6649    0.0000 H   0  0  0  0  0  0  0  0  0  0  0  0
    3.6951   -2.2460    0.0000 H   0  0  0  0  0  0  0  0  0  0  0  0
    3.9220   -3.0929    0.0000 H   0  0  0  0  0  0  0  0  0  0  0  0
    4.7689   -2.8660    0.0000 H   0  0  0  0  0  0  0  0  0  0  0  0
    7.0010    1.0000    0.0000 H   0  0  0  0  0  0  0  0  0  0  0  0
    7.0201   -2.7269    0.0000 H   0  0  0  0  0  0  0  0  0  0  0  0
    7.8671   -2.5000    0.0000 H   0  0  0  0  0  0  0  0  0  0  0  0
    7.6401   -1.6531    0.0000 H   0  0  0  0  0  0  0  0  0  0  0  0
    4.1951    2.6200    0.0000 H   0  0  0  0  0  0  0  0  0  0  0  0
    7.0010    2.6200    0.0000 H   0  0  0  0  0  0  0  0  0  0  0  0
    5.5981    3.4300    0.0000 H   0  0  0  0  0  0  0  0  0  0  0  0
    9.4607    0.2849    0.0000 H   0  0  0  0  0  0  0  0  0  0  0  0
    8.6636    0.2849    0.0000 H   0  0  0  0  0  0  0  0  0  0  0  0
   11.1042   -0.7269    0.0000 H   0  0  0  0  0  0  0  0  0  0  0  0
   11.3312    0.1200    0.0000 H   0  0  0  0  0  0  0  0  0  0  0  0
   10.4842    0.3469    0.0000 H   0  0  0  0  0  0  0  0  0  0  0  0
  1  5  1  0  0  0  0
  1  6  1  0  0  0  0
  1  7  2  0  0  0  0
  1 13  1  0  0  0  0
  2 27  1  0  0  0  0
  3 27  1  0  0  0  0
  4 27  1  0  0  0  0
  5 21  1  0  0  0  0
  6 20  1  0  0  0  0
  8 24  1  0  0  0  0
  8 30  1  0  0  0  0
  9 24  2  0  0  0  0
 10 31  2  0  0  0  0
 11 15  1  0  0  0  0
 11 17  1  0  0  0  0
 11 34  1  0  0  0  0
 12 13  1  0  0  0  0
 12 14  1  0  0  0  0
 12 16  1  0  0  0  0
 12 33  1  0  0  0  0
 13 15  2  0  0  0  0
 14 17  2  0  0  0  0
 14 24  1  0  0  0  0
 15 22  1  0  0  0  0
 16 19  1  0  0  0  0
 16 23  2  0  0  0  0
 17 25  1  0  0  0  0
 18 20  1  0  0  0  0
 18 21  1  0  0  0  0
 18 35  1  0  0  0  0
 18 36  1  0  0  0  0
 19 26  2  0  0  0  0
 19 27  1  0  0  0  0
 20 37  1  0  0  0  0
 20 38  1  0  0  0  0
 21 39  1  0  0  0  0
 21 40  1  0  0  0  0
 22 41  1  0  0  0  0
 22 42  1  0  0  0  0
 22 43  1  0  0  0  0
 23 28  1  0  0  0  0
 23 44  1  0  0  0  0
 25 45  1  0  0  0  0
 25 46  1  0  0  0  0
 25 47  1  0  0  0  0
 26 29  1  0  0  0  0
 26 48  1  0  0  0  0
 28 29  2  0  0  0  0
 28 49  1  0  0  0  0
 29 50  1  0  0  0  0
 30 31  1  0  0  0  0
 30 51  1  0  0  0  0
 30 52  1  0  0  0  0
 31 32  1  0  0  0  0
 32 53  1  0  0  0  0
 32 54  1  0  0  0  0
 32 55  1  0  0  0  0
M  END
> <PUBCHEM_COMPOUND_CID>
14986113

> <PUBCHEM_COMPOUND_CANONICALIZED>
1

> <PUBCHEM_CACTVS_COMPLEXITY>
871

> <PUBCHEM_CACTVS_HBOND_ACCEPTOR>
10

> <PUBCHEM_CACTVS_HBOND_DONOR>
1

> <PUBCHEM_CACTVS_ROTATABLE_BOND>
6

> <PUBCHEM_CACTVS_SUBSKEYS>
AAADceB6OYIAAAAAAAAAAAAAAAAAAAAAAAA0QIAAAAAAAAABAAAAHwgQACAADQyhmBIyCILABRCIQqTSSIICAAAgAAAIiAFAAMgIJDKAMRSCMAAlkACIqUeIyPCOgAAAAAAQAAAAAAAAACAAAAAAAAAAAA==

> <PUBCHEM_IUPAC_OPENEYE_NAME>
acetonyl 2,6-dimethyl-5-(2-oxo-1,3,2$l^{5}-dioxaphosphinan-2-yl)-4-[2-(trifluoromethyl)phenyl]-1,4-dihydropyridine-3-carboxylate

> <PUBCHEM_IUPAC_CAS_NAME>
2,6-dimethyl-5-(2-oxo-1,3,2$l^{5}-dioxaphosphorinan-2-yl)-4-[2-(trifluoromethyl)phenyl]-1,4-dihydropyridine-3-carboxylic acid 2-oxopropyl ester

> <PUBCHEM_IUPAC_NAME>
2-oxopropyl 2,6-dimethyl-5-(2-oxo-1,3,2$l^{5}-dioxaphosphinan-2-yl)-4-[2-(trifluoromethyl)phenyl]-1,4-dihydropyridine-3-carboxylate

> <PUBCHEM_IUPAC_SYSTEMATIC_NAME>
2-oxidanylidenepropyl 2,6-dimethyl-5-(2-oxidanylidene-1,3,2$l^{5}-dioxaphosphinan-2-yl)-4-[2-(trifluoromethyl)phenyl]-1,4-dihydropyridine-3-carboxylate

> <PUBCHEM_IUPAC_TRADITIONAL_NAME>
5-(2-keto-1,3,2$l^{5}-dioxaphosphorinan-2-yl)-2,6-dimethyl-4-[2-(trifluoromethyl)phenyl]-1,4-dihydropyridine-3-carboxylic acid acetonyl ester

> <PUBCHEM_IUPAC_INCHI>
InChI=1S/C21H23F3NO6P/c1-12(26)11-29-20(27)17-13(2)25-14(3)19(32(28)30-9-6-10-31-32)18(17)15-7-4-5-8-16(15)21(22,23)24/h4-5,7-8,18,25H,6,9-11H2,1-3H3

> <PUBCHEM_IUPAC_INCHIKEY>
LFSBCCZBGVUBOA-UHFFFAOYSA-N

> <PUBCHEM_XLOGP3>
2.1

> <PUBCHEM_EXACT_MASS>
473.121509

> <PUBCHEM_MOLECULAR_FORMULA>
C21H23F3NO6P

> <PUBCHEM_MOLECULAR_WEIGHT>
473.379392

> <PUBCHEM_OPENEYE_CAN_SMILES>
CC1=C(C(C(=C(N1)C)P2(=O)OCCCO2)C3=CC=CC=C3C(F)(F)F)C(=O)OCC(=O)C

> <PUBCHEM_OPENEYE_ISO_SMILES>
CC1=C(C(C(=C(N1)C)P2(=O)OCCCO2)C3=CC=CC=C3C(F)(F)F)C(=O)OCC(=O)C

> <PUBCHEM_CACTVS_TPSA>
90.9

> <PUBCHEM_MONOISOTOPIC_WEIGHT>
473.121509

> <PUBCHEM_TOTAL_CHARGE>
0

> <PUBCHEM_HEAVY_ATOM_COUNT>
32

> <PUBCHEM_ATOM_DEF_STEREO_COUNT>
0

> <PUBCHEM_ATOM_UDEF_STEREO_COUNT>
1

> <PUBCHEM_BOND_DEF_STEREO_COUNT>
0

> <PUBCHEM_BOND_UDEF_STEREO_COUNT>
0

> <PUBCHEM_ISOTOPIC_ATOM_COUNT>
0

> <PUBCHEM_COMPONENT_COUNT>
1

> <PUBCHEM_CACTVS_TAUTO_COUNT>
9

> <PUBCHEM_COORDINATE_TYPE>
1
5
255

> <PUBCHEM_BONDANNOTATIONS>
12  16  3
16  19  8
16  23  8
19  26  8
23  28  8
26  29  8
28  29  8

$$$$
14995685
  -OEChem-06111304072D

 18 18  0     0  0  0  0  0  0999 V2000
    2.0000   -2.0000    0.0000 Cl  0  0  0  0  0  0  0  0  0  0  0  0
    3.7320   -3.0000    0.0000 Cl  0  0  0  0  0  0  0  0  0  0  0  0
    5.4641    3.0000    0.0000 Cl  0  0  0  0  0  0  0  0  0  0  0  0
    3.7320    3.0000    0.0000 Cl  0  0  0  0  0  0  0  0  0  0  0  0
    2.8660    1.5000    0.0000 O   0  0  0  0  0  0  0  0  0  0  0  0
    3.7320    0.0000    0.0000 C   0  0  0  0  0  0  0  0  0  0  0  0
    2.8660   -0.5000    0.0000 C   0  0  0  0  0  0  0  0  0  0  0  0
    4.5981   -0.5000    0.0000 C   0  0  0  0  0  0  0  0  0  0  0  0
    2.8660   -1.5000    0.0000 C   0  0  0  0  0  0  0  0  0  0  0  0
    4.5981   -1.5000    0.0000 C   0  0  0  0  0  0  0  0  0  0  0  0
    3.7320    1.0000    0.0000 C   0  0  0  0  0  0  0  0  0  0  0  0
    3.7320   -2.0000    0.0000 C   0  0  0  0  0  0  0  0  0  0  0  0
    4.5981    1.5000    0.0000 C   0  0  0  0  0  0  0  0  0  0  0  0
    4.5981    2.5000    0.0000 C   0  0  0  0  0  0  0  0  0  0  0  0
    2.3291   -0.1900    0.0000 H   0  0  0  0  0  0  0  0  0  0  0  0
    5.1350   -0.1900    0.0000 H   0  0  0  0  0  0  0  0  0  0  0  0
    5.1350   -1.8100    0.0000 H   0  0  0  0  0  0  0  0  0  0  0  0
    5.1350    1.1900    0.0000 H   0  0  0  0  0  0  0  0  0  0  0  0
  1  9  1  0  0  0  0
  2 12  1  0  0  0  0
  3 14  1  0  0  0  0
  4 14  1  0  0  0  0
  5 11  2  0  0  0  0
  6  7  2  0  0  0  0
  6  8  1  0  0  0  0
  6 11  1  0  0  0  0
  7  9  1  0  0  0  0
  7 15  1  0  0  0  0
  8 10  2  0  0  0  0
  8 16  1  0  0  0  0
  9 12  2  0  0  0  0
 10 12  1  0  0  0  0
 10 17  1  0  0  0  0
 11 13  1  0  0  0  0
 13 14  2  0  0  0  0
 13 18  1  0  0  0  0
M  END
> <PUBCHEM_COMPOUND_CID>
14995685

> <PUBCHEM_COMPOUND_CANONICALIZED>
1

> <PUBCHEM_CACTVS_COMPLEXITY>
247

> <PUBCHEM_CACTVS_HBOND_ACCEPTOR>
1

> <PUBCHEM_CACTVS_HBOND_DONOR>
0

> <PUBCHEM_CACTVS_ROTATABLE_BOND>
2

> <PUBCHEM_CACTVS_SUBSKEYS>
AAADcYBwIAAHAAAAAAAAAAAAAAAAAAAAAAAwAAAAAAAAAAABAAAAGgIAAAAADAaAmKAwAIAAAACIAqBSAAACAAAkBQAIikEAAsgIIDKBFxCAIQAggAAIiYcIiICOBAAAIAAAAAQIAABAAAAACAAAAAAAAA==

> <PUBCHEM_IUPAC_OPENEYE_NAME>
3,3-dichloro-1-(3,4-dichlorophenyl)prop-2-en-1-one

> <PUBCHEM_IUPAC_CAS_NAME>
3,3-dichloro-1-(3,4-dichlorophenyl)-2-propen-1-one

> <PUBCHEM_IUPAC_NAME>
3,3-dichloro-1-(3,4-dichlorophenyl)prop-2-en-1-one

> <PUBCHEM_IUPAC_SYSTEMATIC_NAME>
3,3-bis(chloranyl)-1-(3,4-dichlorophenyl)prop-2-en-1-one

> <PUBCHEM_IUPAC_TRADITIONAL_NAME>
3,3-dichloro-1-(3,4-dichlorophenyl)prop-2-en-1-one

> <PUBCHEM_IUPAC_INCHI>
InChI=1S/C9H4Cl4O/c10-6-2-1-5(3-7(6)11)8(14)4-9(12)13/h1-4H

> <PUBCHEM_IUPAC_INCHIKEY>
YLXWXPLKPCEARC-UHFFFAOYSA-N

> <PUBCHEM_XLOGP3>
4.8

> <PUBCHEM_EXACT_MASS>
269.898675

> <PUBCHEM_MOLECULAR_FORMULA>
C9H4Cl4O

> <PUBCHEM_MOLECULAR_WEIGHT>
269.93946

> <PUBCHEM_OPENEYE_CAN_SMILES>
C1=CC(=C(C=C1C(=O)C=C(Cl)Cl)Cl)Cl

> <PUBCHEM_OPENEYE_ISO_SMILES>
C1=CC(=C(C=C1C(=O)C=C(Cl)Cl)Cl)Cl

> <PUBCHEM_CACTVS_TPSA>
17.1

> <PUBCHEM_MONOISOTOPIC_WEIGHT>
267.901625

> <PUBCHEM_TOTAL_CHARGE>
0

> <PUBCHEM_HEAVY_ATOM_COUNT>
14

> <PUBCHEM_ATOM_DEF_STEREO_COUNT>
0

> <PUBCHEM_ATOM_UDEF_STEREO_COUNT>
0

> <PUBCHEM_BOND_DEF_STEREO_COUNT>
0

> <PUBCHEM_BOND_UDEF_STEREO_COUNT>
0

> <PUBCHEM_ISOTOPIC_ATOM_COUNT>
0

> <PUBCHEM_COMPONENT_COUNT>
1

> <PUBCHEM_CACTVS_TAUTO_COUNT>
1

> <PUBCHEM_COORDINATE_TYPE>
1
5
255

> <PUBCHEM_BONDANNOTATIONS>
10  12  8
6  7  8
6  8  8
7  9  8
8  10  8
9  12  8

$$$$
