66407834
  -OEChem-11301218282D

 35 37  0     0  0  0  0  0  0999 V2000
    6.2781    0.4706    0.0000 N   0  0  0  0  0  0  0  0  0  0  0  0
    4.6783   -3.2461    0.0000 N   0  0  0  0  0  0  0  0  0  0  0  0
    7.5701    3.2454    0.0000 N   0  0  0  0  0  0  0  0  0  0  0  0
    4.9889   -0.6861    0.0000 C   0  0  0  0  0  0  0  0  0  0  0  0
    4.6783   -1.6366    0.0000 C   0  0  0  0  0  0  0  0  0  0  0  0
    5.9674   -0.4799    0.0000 C   0  0  0  0  0  0  0  0  0  0  0  0
    3.7320   -1.9414    0.0000 C   0  0  0  0  0  0  0  0  0  0  0  0
    3.7320   -2.9414    0.0000 C   0  0  0  0  0  0  0  0  0  0  0  0
    5.2619   -2.4414    0.0000 C   0  0  0  0  0  0  0  0  0  0  0  0
    7.2566    0.6769    0.0000 C   0  0  0  0  0  0  0  0  0  0  0  0
    2.8660   -1.4414    0.0000 C   0  0  0  0  0  0  0  0  0  0  0  0
    7.5673    1.6274    0.0000 C   0  0  0  0  0  0  0  0  0  0  0  0
    2.8660   -3.4414    0.0000 C   0  0  0  0  0  0  0  0  0  0  0  0
    2.0000   -1.9414    0.0000 C   0  0  0  0  0  0  0  0  0  0  0  0
    2.0000   -2.9414    0.0000 C   0  0  0  0  0  0  0  0  0  0  0  0
    6.9809    2.4374    0.0000 C   0  0  0  0  0  0  0  0  0  0  0  0
    8.5189    1.9348    0.0000 C   0  0  0  0  0  0  0  0  0  0  0  0
    8.5206    2.9348    0.0000 C   0  0  0  0  0  0  0  0  0  0  0  0
    4.9684   -0.0664    0.0000 H   0  0  0  0  0  0  0  0  0  0  0  0
    4.3751   -0.5987    0.0000 H   0  0  0  0  0  0  0  0  0  0  0  0
    5.9880   -1.0995    0.0000 H   0  0  0  0  0  0  0  0  0  0  0  0
    6.5812   -0.5672    0.0000 H   0  0  0  0  0  0  0  0  0  0  0  0
    5.8819   -2.4414    0.0000 H   0  0  0  0  0  0  0  0  0  0  0  0
    5.8640    0.9321    0.0000 H   0  0  0  0  0  0  0  0  0  0  0  0
    7.2772    0.0572    0.0000 H   0  0  0  0  0  0  0  0  0  0  0  0
    7.8704    0.5895    0.0000 H   0  0  0  0  0  0  0  0  0  0  0  0
    4.8709   -3.8354    0.0000 H   0  0  0  0  0  0  0  0  0  0  0  0
    2.8660   -0.8213    0.0000 H   0  0  0  0  0  0  0  0  0  0  0  0
    2.8660   -4.0614    0.0000 H   0  0  0  0  0  0  0  0  0  0  0  0
    1.4631   -1.6314    0.0000 H   0  0  0  0  0  0  0  0  0  0  0  0
    1.4631   -3.2514    0.0000 H   0  0  0  0  0  0  0  0  0  0  0  0
    6.3609    2.4385    0.0000 H   0  0  0  0  0  0  0  0  0  0  0  0
    9.0198    1.5695    0.0000 H   0  0  0  0  0  0  0  0  0  0  0  0
    7.3795    3.8354    0.0000 H   0  0  0  0  0  0  0  0  0  0  0  0
    9.0228    3.2983    0.0000 H   0  0  0  0  0  0  0  0  0  0  0  0
  1  6  1  0  0  0  0
  1 10  1  0  0  0  0
  1 24  1  0  0  0  0
  2  8  1  0  0  0  0
  2  9  1  0  0  0  0
  2 27  1  0  0  0  0
  3 16  1  0  0  0  0
  3 18  1  0  0  0  0
  3 34  1  0  0  0  0
  4  5  1  0  0  0  0
  4  6  1  0  0  0  0
  4 19  1  0  0  0  0
  4 20  1  0  0  0  0
  5  7  1  0  0  0  0
  5  9  2  0  0  0  0
  6 21  1  0  0  0  0
  6 22  1  0  0  0  0
  7  8  1  0  0  0  0
  7 11  2  0  0  0  0
  8 13  2  0  0  0  0
  9 23  1  0  0  0  0
 10 12  1  0  0  0  0
 10 25  1  0  0  0  0
 10 26  1  0  0  0  0
 11 14  1  0  0  0  0
 11 28  1  0  0  0  0
 12 16  2  0  0  0  0
 12 17  1  0  0  0  0
 13 15  1  0  0  0  0
 13 29  1  0  0  0  0
 14 15  2  0  0  0  0
 14 30  1  0  0  0  0
 15 31  1  0  0  0  0
 16 32  1  0  0  0  0
 17 18  2  0  0  0  0
 17 33  1  0  0  0  0
 18 35  1  0  0  0  0
M  END
> <PUBCHEM_COMPOUND_CID>
66407834

> <PUBCHEM_COMPOUND_CANONICALIZED>
1

> <PUBCHEM_CACTVS_COMPLEXITY>
256

> <PUBCHEM_CACTVS_HBOND_ACCEPTOR>
1

> <PUBCHEM_CACTVS_HBOND_DONOR>
3

> <PUBCHEM_CACTVS_ROTATABLE_BOND>
5

> <PUBCHEM_CACTVS_SUBSKEYS>
AAADceBzAAAAAAAAAAAAAAAAAAAAAWLAAAAwAAAAAAAAAFgB/AAAHAAQAAAADAjBHgQ8wPLJkACgAzRnRACCgCAxAiAI2aA4ZJgIIOLA0ZGEIAhgkADIyAcQgMAOgAAAAAACAAAAAAAAAAQAAAAAAAAAAA==

> <PUBCHEM_IUPAC_OPENEYE_NAME>
2-(1H-indol-3-yl)-N-(1H-pyrrol-3-ylmethyl)ethanamine

> <PUBCHEM_IUPAC_CAS_NAME>
2-(1H-indol-3-yl)-N-(1H-pyrrol-3-ylmethyl)ethanamine

> <PUBCHEM_IUPAC_NAME>
2-(1H-indol-3-yl)-N-(1H-pyrrol-3-ylmethyl)ethanamine

> <PUBCHEM_IUPAC_SYSTEMATIC_NAME>
2-(1H-indol-3-yl)-N-(1H-pyrrol-3-ylmethyl)ethanamine

> <PUBCHEM_IUPAC_TRADITIONAL_NAME>
2-(1H-indol-3-yl)ethyl-(1H-pyrrol-3-ylmethyl)amine

> <PUBCHEM_IUPAC_INCHI>
InChI=1S/C15H17N3/c1-2-4-15-14(3-1)13(11-18-15)6-8-17-10-12-5-7-16-9-12/h1-5,7,9,11,16-18H,6,8,10H2

> <PUBCHEM_IUPAC_INCHIKEY>
KMMXZLFSFLSURJ-UHFFFAOYSA-N

> <PUBCHEM_XLOGP3>
2.3

> <PUBCHEM_EXACT_MASS>
239.142248

> <PUBCHEM_MOLECULAR_FORMULA>
C15H17N3

> <PUBCHEM_MOLECULAR_WEIGHT>
239.31558

> <PUBCHEM_OPENEYE_CAN_SMILES>
C1=CC=C2C(=C1)C(=CN2)CCNCC3=CNC=C3

> <PUBCHEM_OPENEYE_ISO_SMILES>
C1=CC=C2C(=C1)C(=CN2)CCNCC3=CNC=C3

> <PUBCHEM_CACTVS_TPSA>
43.6

> <PUBCHEM_MONOISOTOPIC_WEIGHT>
239.142248

> <PUBCHEM_TOTAL_CHARGE>
0

> <PUBCHEM_HEAVY_ATOM_COUNT>
18

> <PUBCHEM_ATOM_DEF_STEREO_COUNT>
0

> <PUBCHEM_ATOM_UDEF_STEREO_COUNT>
0

> <PUBCHEM_BOND_DEF_STEREO_COUNT>
0

> <PUBCHEM_BOND_UDEF_STEREO_COUNT>
0

> <PUBCHEM_ISOTOPIC_ATOM_COUNT>
0

> <PUBCHEM_COMPONENT_COUNT>
1

> <PUBCHEM_CACTVS_TAUTO_COUNT>
1

> <PUBCHEM_COORDINATE_TYPE>
1
5
255

> <PUBCHEM_BONDANNOTATIONS>
11  14  8
12  16  8
12  17  8
13  15  8
14  15  8
17  18  8
2  8  8
2  9  8
3  16  8
3  18  8
5  7  8
5  9  8
7  11  8
7  8  8
8  13  8

$$$$
66411297
  -OEChem-11301218282D

 44 46  0     0  0  0  0  0  0999 V2000
    8.5189    2.2298    0.0000 N   0  0  0  0  0  0  0  0  0  0  0  0
    6.2781    0.7656    0.0000 N   0  0  0  0  0  0  0  0  0  0  0  0
    4.6783   -2.9511    0.0000 N   0  0  0  0  0  0  0  0  0  0  0  0
    4.9889   -0.3911    0.0000 C   0  0  0  0  0  0  0  0  0  0  0  0
    7.5673    1.9224    0.0000 C   0  0  0  0  0  0  0  0  0  0  0  0
    5.9674   -0.1849    0.0000 C   0  0  0  0  0  0  0  0  0  0  0  0
    4.6783   -1.3416    0.0000 C   0  0  0  0  0  0  0  0  0  0  0  0
    7.2566    0.9719    0.0000 C   0  0  0  0  0  0  0  0  0  0  0  0
    9.3269    1.6406    0.0000 C   0  0  0  0  0  0  0  0  0  0  0  0
    3.7320   -1.6464    0.0000 C   0  0  0  0  0  0  0  0  0  0  0  0
    3.7320   -2.6464    0.0000 C   0  0  0  0  0  0  0  0  0  0  0  0
    5.2619   -2.1464    0.0000 C   0  0  0  0  0  0  0  0  0  0  0  0
   10.2411    2.0457    0.0000 C   0  0  0  0  0  0  0  0  0  0  0  0
    6.9809    2.7324    0.0000 C   0  0  0  0  0  0  0  0  0  0  0  0
    8.5206    3.2298    0.0000 C   0  0  0  0  0  0  0  0  0  0  0  0
    7.5701    3.5404    0.0000 C   0  0  0  0  0  0  0  0  0  0  0  0
    2.8660   -1.1464    0.0000 C   0  0  0  0  0  0  0  0  0  0  0  0
    2.8660   -3.1464    0.0000 C   0  0  0  0  0  0  0  0  0  0  0  0
   11.0491    1.4565    0.0000 C   0  0  0  0  0  0  0  0  0  0  0  0
    2.0000   -1.6464    0.0000 C   0  0  0  0  0  0  0  0  0  0  0  0
    2.0000   -2.6464    0.0000 C   0  0  0  0  0  0  0  0  0  0  0  0
    4.9684    0.2286    0.0000 H   0  0  0  0  0  0  0  0  0  0  0  0
    4.3751   -0.3038    0.0000 H   0  0  0  0  0  0  0  0  0  0  0  0
    5.9880   -0.8045    0.0000 H   0  0  0  0  0  0  0  0  0  0  0  0
    6.5812   -0.2722    0.0000 H   0  0  0  0  0  0  0  0  0  0  0  0
    7.2772    0.3522    0.0000 H   0  0  0  0  0  0  0  0  0  0  0  0
    7.8704    0.8845    0.0000 H   0  0  0  0  0  0  0  0  0  0  0  0
    8.8801    1.2106    0.0000 H   0  0  0  0  0  0  0  0  0  0  0  0
    9.6727    1.1260    0.0000 H   0  0  0  0  0  0  0  0  0  0  0  0
    5.8640    1.2271    0.0000 H   0  0  0  0  0  0  0  0  0  0  0  0
    5.8819   -2.1464    0.0000 H   0  0  0  0  0  0  0  0  0  0  0  0
   10.6878    2.4756    0.0000 H   0  0  0  0  0  0  0  0  0  0  0  0
    9.8953    2.5603    0.0000 H   0  0  0  0  0  0  0  0  0  0  0  0
    6.3609    2.7335    0.0000 H   0  0  0  0  0  0  0  0  0  0  0  0
    9.0228    3.5933    0.0000 H   0  0  0  0  0  0  0  0  0  0  0  0
    4.8709   -3.5404    0.0000 H   0  0  0  0  0  0  0  0  0  0  0  0
    7.3795    4.1304    0.0000 H   0  0  0  0  0  0  0  0  0  0  0  0
    2.8660   -0.5264    0.0000 H   0  0  0  0  0  0  0  0  0  0  0  0
    2.8660   -3.7664    0.0000 H   0  0  0  0  0  0  0  0  0  0  0  0
   10.6838    0.9556    0.0000 H   0  0  0  0  0  0  0  0  0  0  0  0
   11.5501    1.0912    0.0000 H   0  0  0  0  0  0  0  0  0  0  0  0
   11.4144    1.9575    0.0000 H   0  0  0  0  0  0  0  0  0  0  0  0
    1.4631   -1.3364    0.0000 H   0  0  0  0  0  0  0  0  0  0  0  0
    1.4631   -2.9564    0.0000 H   0  0  0  0  0  0  0  0  0  0  0  0
  1  5  1  0  0  0  0
  1  9  1  0  0  0  0
  1 15  1  0  0  0  0
  2  6  1  0  0  0  0
  2  8  1  0  0  0  0
  2 30  1  0  0  0  0
  3 11  1  0  0  0  0
  3 12  1  0  0  0  0
  3 36  1  0  0  0  0
  4  6  1  0  0  0  0
  4  7  1  0  0  0  0
  4 22  1  0  0  0  0
  4 23  1  0  0  0  0
  5  8  1  0  0  0  0
  5 14  2  0  0  0  0
  6 24  1  0  0  0  0
  6 25  1  0  0  0  0
  7 10  1  0  0  0  0
  7 12  2  0  0  0  0
  8 26  1  0  0  0  0
  8 27  1  0  0  0  0
  9 13  1  0  0  0  0
  9 28  1  0  0  0  0
  9 29  1  0  0  0  0
 10 11  1  0  0  0  0
 10 17  2  0  0  0  0
 11 18  2  0  0  0  0
 12 31  1  0  0  0  0
 13 19  1  0  0  0  0
 13 32  1  0  0  0  0
 13 33  1  0  0  0  0
 14 16  1  0  0  0  0
 14 34  1  0  0  0  0
 15 16  2  0  0  0  0
 15 35  1  0  0  0  0
 16 37  1  0  0  0  0
 17 20  1  0  0  0  0
 17 38  1  0  0  0  0
 18 21  1  0  0  0  0
 18 39  1  0  0  0  0
 19 40  1  0  0  0  0
 19 41  1  0  0  0  0
 19 42  1  0  0  0  0
 20 21  2  0  0  0  0
 20 43  1  0  0  0  0
 21 44  1  0  0  0  0
M  END
> <PUBCHEM_COMPOUND_CID>
66411297

> <PUBCHEM_COMPOUND_CANONICALIZED>
1

> <PUBCHEM_CACTVS_COMPLEXITY>
307

> <PUBCHEM_CACTVS_HBOND_ACCEPTOR>
1

> <PUBCHEM_CACTVS_HBOND_DONOR>
2

> <PUBCHEM_CACTVS_ROTATABLE_BOND>
7

> <PUBCHEM_CACTVS_SUBSKEYS>
AAADceB7AAAAAAAAAAAAAAAAAAAAAWLAAAAwAAAAAAAAAFgB/AAAHAAQAAAADAjBHgQ+wPPNkACgAzRnRACCgCAxAiAI2aA4ZJgIYOLAkZGUIAhgkADIyAcQgMAOgAAAAAACAAAAAAAAAAQAAAAAAAAAAA==

> <PUBCHEM_IUPAC_OPENEYE_NAME>
2-(1H-indol-3-yl)-N-[(1-propylpyrrol-2-yl)methyl]ethanamine

> <PUBCHEM_IUPAC_CAS_NAME>
2-(1H-indol-3-yl)-N-[(1-propyl-2-pyrrolyl)methyl]ethanamine

> <PUBCHEM_IUPAC_NAME>
2-(1H-indol-3-yl)-N-[(1-propylpyrrol-2-yl)methyl]ethanamine

> <PUBCHEM_IUPAC_SYSTEMATIC_NAME>
2-(1H-indol-3-yl)-N-[(1-propylpyrrol-2-yl)methyl]ethanamine

> <PUBCHEM_IUPAC_TRADITIONAL_NAME>
2-(1H-indol-3-yl)ethyl-[(1-propylpyrrol-2-yl)methyl]amine

> <PUBCHEM_IUPAC_INCHI>
InChI=1S/C18H23N3/c1-2-11-21-12-5-6-16(21)14-19-10-9-15-13-20-18-8-4-3-7-17(15)18/h3-8,12-13,19-20H,2,9-11,14H2,1H3

> <PUBCHEM_IUPAC_INCHIKEY>
PFHZKEXSIFTMNI-UHFFFAOYSA-N

> <PUBCHEM_XLOGP3>
3.2

> <PUBCHEM_EXACT_MASS>
281.189198

> <PUBCHEM_MOLECULAR_FORMULA>
C18H23N3

> <PUBCHEM_MOLECULAR_WEIGHT>
281.39532

> <PUBCHEM_OPENEYE_CAN_SMILES>
CCCN1C=CC=C1CNCCC2=CNC3=CC=CC=C32

> <PUBCHEM_OPENEYE_ISO_SMILES>
CCCN1C=CC=C1CNCCC2=CNC3=CC=CC=C32

> <PUBCHEM_CACTVS_TPSA>
32.8

> <PUBCHEM_MONOISOTOPIC_WEIGHT>
281.189198

> <PUBCHEM_TOTAL_CHARGE>
0

> <PUBCHEM_HEAVY_ATOM_COUNT>
21

> <PUBCHEM_ATOM_DEF_STEREO_COUNT>
0

> <PUBCHEM_ATOM_UDEF_STEREO_COUNT>
0

> <PUBCHEM_BOND_DEF_STEREO_COUNT>
0

> <PUBCHEM_BOND_UDEF_STEREO_COUNT>
0

> <PUBCHEM_ISOTOPIC_ATOM_COUNT>
0

> <PUBCHEM_COMPONENT_COUNT>
1

> <PUBCHEM_CACTVS_TAUTO_COUNT>
1

> <PUBCHEM_COORDINATE_TYPE>
1
5
255

> <PUBCHEM_BONDANNOTATIONS>
1  15  8
1  5  8
10  11  8
10  17  8
11  18  8
14  16  8
15  16  8
17  20  8
18  21  8
20  21  8
3  11  8
3  12  8
5  14  8
7  10  8
7  12  8

$$$$
66411490
  -OEChem-11301218282D

 41 43  0     0  0  0  0  0  0999 V2000
    6.2781    0.7656    0.0000 N   0  0  0  0  0  0  0  0  0  0  0  0
    8.5189    2.2298    0.0000 N   0  0  0  0  0  0  0  0  0  0  0  0
    4.6783   -2.9511    0.0000 N   0  0  0  0  0  0  0  0  0  0  0  0
    4.9889   -0.3911    0.0000 C   0  0  0  0  0  0  0  0  0  0  0  0
    4.6783   -1.3416    0.0000 C   0  0  0  0  0  0  0  0  0  0  0  0
    5.9674   -0.1849    0.0000 C   0  0  0  0  0  0  0  0  0  0  0  0
    7.2566    0.9719    0.0000 C   0  0  0  0  0  0  0  0  0  0  0  0
    3.7320   -1.6464    0.0000 C   0  0  0  0  0  0  0  0  0  0  0  0
    7.5673    1.9224    0.0000 C   0  0  0  0  0  0  0  0  0  0  0  0
    3.7320   -2.6464    0.0000 C   0  0  0  0  0  0  0  0  0  0  0  0
    5.2619   -2.1464    0.0000 C   0  0  0  0  0  0  0  0  0  0  0  0
    9.3269    1.6406    0.0000 C   0  0  0  0  0  0  0  0  0  0  0  0
    6.9809    2.7324    0.0000 C   0  0  0  0  0  0  0  0  0  0  0  0
    8.5206    3.2298    0.0000 C   0  0  0  0  0  0  0  0  0  0  0  0
    2.8660   -1.1464    0.0000 C   0  0  0  0  0  0  0  0  0  0  0  0
    7.5701    3.5404    0.0000 C   0  0  0  0  0  0  0  0  0  0  0  0
    2.8660   -3.1464    0.0000 C   0  0  0  0  0  0  0  0  0  0  0  0
    2.0000   -1.6464    0.0000 C   0  0  0  0  0  0  0  0  0  0  0  0
   10.2411    2.0457    0.0000 C   0  0  0  0  0  0  0  0  0  0  0  0
    2.0000   -2.6464    0.0000 C   0  0  0  0  0  0  0  0  0  0  0  0
    4.9684    0.2286    0.0000 H   0  0  0  0  0  0  0  0  0  0  0  0
    4.3751   -0.3038    0.0000 H   0  0  0  0  0  0  0  0  0  0  0  0
    5.9880   -0.8045    0.0000 H   0  0  0  0  0  0  0  0  0  0  0  0
    6.5812   -0.2722    0.0000 H   0  0  0  0  0  0  0  0  0  0  0  0
    7.2772    0.3522    0.0000 H   0  0  0  0  0  0  0  0  0  0  0  0
    7.8704    0.8845    0.0000 H   0  0  0  0  0  0  0  0  0  0  0  0
    5.8640    1.2271    0.0000 H   0  0  0  0  0  0  0  0  0  0  0  0
    5.8819   -2.1464    0.0000 H   0  0  0  0  0  0  0  0  0  0  0  0
    8.8801    1.2106    0.0000 H   0  0  0  0  0  0  0  0  0  0  0  0
    9.6727    1.1260    0.0000 H   0  0  0  0  0  0  0  0  0  0  0  0
    4.8709   -3.5404    0.0000 H   0  0  0  0  0  0  0  0  0  0  0  0
    6.3609    2.7335    0.0000 H   0  0  0  0  0  0  0  0  0  0  0  0
    9.0228    3.5933    0.0000 H   0  0  0  0  0  0  0  0  0  0  0  0
    2.8660   -0.5264    0.0000 H   0  0  0  0  0  0  0  0  0  0  0  0
    7.3795    4.1304    0.0000 H   0  0  0  0  0  0  0  0  0  0  0  0
    2.8660   -3.7664    0.0000 H   0  0  0  0  0  0  0  0  0  0  0  0
    1.4631   -1.3364    0.0000 H   0  0  0  0  0  0  0  0  0  0  0  0
   10.4923    1.4789    0.0000 H   0  0  0  0  0  0  0  0  0  0  0  0
   10.8079    2.2969    0.0000 H   0  0  0  0  0  0  0  0  0  0  0  0
    9.9899    2.6126    0.0000 H   0  0  0  0  0  0  0  0  0  0  0  0
    1.4631   -2.9564    0.0000 H   0  0  0  0  0  0  0  0  0  0  0  0
  1  6  1  0  0  0  0
  1  7  1  0  0  0  0
  1 27  1  0  0  0  0
  2  9  1  0  0  0  0
  2 12  1  0  0  0  0
  2 14  1  0  0  0  0
  3 10  1  0  0  0  0
  3 11  1  0  0  0  0
  3 31  1  0  0  0  0
  4  5  1  0  0  0  0
  4  6  1  0  0  0  0
  4 21  1  0  0  0  0
  4 22  1  0  0  0  0
  5  8  1  0  0  0  0
  5 11  2  0  0  0  0
  6 23  1  0  0  0  0
  6 24  1  0  0  0  0
  7  9  1  0  0  0  0
  7 25  1  0  0  0  0
  7 26  1  0  0  0  0
  8 10  1  0  0  0  0
  8 15  2  0  0  0  0
  9 13  2  0  0  0  0
 10 17  2  0  0  0  0
 11 28  1  0  0  0  0
 12 19  1  0  0  0  0
 12 29  1  0  0  0  0
 12 30  1  0  0  0  0
 13 16  1  0  0  0  0
 13 32  1  0  0  0  0
 14 16  2  0  0  0  0
 14 33  1  0  0  0  0
 15 18  1  0  0  0  0
 15 34  1  0  0  0  0
 16 35  1  0  0  0  0
 17 20  1  0  0  0  0
 17 36  1  0  0  0  0
 18 20  2  0  0  0  0
 18 37  1  0  0  0  0
 19 38  1  0  0  0  0
 19 39  1  0  0  0  0
 19 40  1  0  0  0  0
 20 41  1  0  0  0  0
M  END
> <PUBCHEM_COMPOUND_CID>
66411490

> <PUBCHEM_COMPOUND_CANONICALIZED>
1

> <PUBCHEM_CACTVS_COMPLEXITY>
294

> <PUBCHEM_CACTVS_HBOND_ACCEPTOR>
1

> <PUBCHEM_CACTVS_HBOND_DONOR>
2

> <PUBCHEM_CACTVS_ROTATABLE_BOND>
6

> <PUBCHEM_CACTVS_SUBSKEYS>
AAADceB7AAAAAAAAAAAAAAAAAAAAAWLAAAAwAAAAAAAAAFgB/AAAHAAQAAAADAjBHgQ+wPPNkACgAzRnRACCgCAxAiAI2aA4ZJgIYOLAkZGUIAhgkADIyAcQgMAOgAAAAAACAAAAAAAAAAQAAAAAAAAAAA==

> <PUBCHEM_IUPAC_OPENEYE_NAME>
N-[(1-ethylpyrrol-2-yl)methyl]-2-(1H-indol-3-yl)ethanamine

> <PUBCHEM_IUPAC_CAS_NAME>
N-[(1-ethyl-2-pyrrolyl)methyl]-2-(1H-indol-3-yl)ethanamine

> <PUBCHEM_IUPAC_NAME>
N-[(1-ethylpyrrol-2-yl)methyl]-2-(1H-indol-3-yl)ethanamine

> <PUBCHEM_IUPAC_SYSTEMATIC_NAME>
N-[(1-ethylpyrrol-2-yl)methyl]-2-(1H-indol-3-yl)ethanamine

> <PUBCHEM_IUPAC_TRADITIONAL_NAME>
(1-ethylpyrrol-2-yl)methyl-[2-(1H-indol-3-yl)ethyl]amine

> <PUBCHEM_IUPAC_INCHI>
InChI=1S/C17H21N3/c1-2-20-11-5-6-15(20)13-18-10-9-14-12-19-17-8-4-3-7-16(14)17/h3-8,11-12,18-19H,2,9-10,13H2,1H3

> <PUBCHEM_IUPAC_INCHIKEY>
BSTFQEOWUZEZJQ-UHFFFAOYSA-N

> <PUBCHEM_XLOGP3>
2.6

> <PUBCHEM_EXACT_MASS>
267.173548

> <PUBCHEM_MOLECULAR_FORMULA>
C17H21N3

> <PUBCHEM_MOLECULAR_WEIGHT>
267.36874

> <PUBCHEM_OPENEYE_CAN_SMILES>
CCN1C=CC=C1CNCCC2=CNC3=CC=CC=C32

> <PUBCHEM_OPENEYE_ISO_SMILES>
CCN1C=CC=C1CNCCC2=CNC3=CC=CC=C32

> <PUBCHEM_CACTVS_TPSA>
32.8

> <PUBCHEM_MONOISOTOPIC_WEIGHT>
267.173548

> <PUBCHEM_TOTAL_CHARGE>
0

> <PUBCHEM_HEAVY_ATOM_COUNT>
20

> <PUBCHEM_ATOM_DEF_STEREO_COUNT>
0

> <PUBCHEM_ATOM_UDEF_STEREO_COUNT>
0

> <PUBCHEM_BOND_DEF_STEREO_COUNT>
0

> <PUBCHEM_BOND_UDEF_STEREO_COUNT>
0

> <PUBCHEM_ISOTOPIC_ATOM_COUNT>
0

> <PUBCHEM_COMPONENT_COUNT>
1

> <PUBCHEM_CACTVS_TAUTO_COUNT>
1

> <PUBCHEM_COORDINATE_TYPE>
1
5
255

> <PUBCHEM_BONDANNOTATIONS>
10  17  8
13  16  8
14  16  8
15  18  8
17  20  8
18  20  8
2  14  8
2  9  8
3  10  8
3  11  8
5  11  8
5  8  8
8  10  8
8  15  8
9  13  8

$$$$
