26253513
  -OEChem-03091303422D

 53 55  0     0  0  0  0  0  0999 V2000
   10.6603   -1.9400    0.0000 S   0  0  0  0  0  0  0  0  0  0  0  0
   10.1603   -2.8060    0.0000 O   0  0  0  0  0  0  0  0  0  0  0  0
   11.1603   -1.0740    0.0000 O   0  0  0  0  0  0  0  0  0  0  0  0
   13.2583    0.5600    0.0000 O   0  0  0  0  0  0  0  0  0  0  0  0
   14.9904   -2.4400    0.0000 O   0  0  0  0  0  0  0  0  0  0  0  0
    6.3301   -1.4400    0.0000 O   0  0  0  0  0  0  0  0  0  0  0  0
    2.0000    3.0600    0.0000 O   0  5  0  0  0  0  0  0  0  0  0  0
    3.7320    3.0600    0.0000 O   0  0  0  0  0  0  0  0  0  0  0  0
   11.5263   -2.4400    0.0000 N   0  0  0  0  0  0  0  0  0  0  0  0
    7.1962    0.0600    0.0000 N   0  0  0  0  0  0  0  0  0  0  0  0
   13.2583   -2.4400    0.0000 N   0  0  0  0  0  0  0  0  0  0  0  0
   14.1244   -0.9400    0.0000 N   0  0  0  0  0  0  0  0  0  0  0  0
    2.8660    2.5600    0.0000 N   0  3  0  0  0  0  0  0  0  0  0  0
    9.7942   -1.4400    0.0000 C   0  0  0  0  0  0  0  0  0  0  0  0
    9.7942   -0.4400    0.0000 C   0  0  0  0  0  0  0  0  0  0  0  0
    8.9282   -1.9400    0.0000 C   0  0  0  0  0  0  0  0  0  0  0  0
    8.0622   -0.4400    0.0000 C   0  0  0  0  0  0  0  0  0  0  0  0
    8.9282    0.0600    0.0000 C   0  0  0  0  0  0  0  0  0  0  0  0
    8.0622   -1.4400    0.0000 C   0  0  0  0  0  0  0  0  0  0  0  0
   12.3923   -1.9400    0.0000 C   0  0  0  0  0  0  0  0  0  0  0  0
   12.3923   -0.9400    0.0000 C   0  0  0  0  0  0  0  0  0  0  0  0
    6.3301   -0.4400    0.0000 C   0  0  0  0  0  0  0  0  0  0  0  0
    3.7320    0.0600    0.0000 C   0  0  0  0  0  0  0  0  0  0  0  0
    5.4641    0.0600    0.0000 C   0  0  0  0  0  0  0  0  0  0  0  0
   13.2583   -0.4400    0.0000 C   0  0  0  0  0  0  0  0  0  0  0  0
    4.5981   -0.4400    0.0000 C   0  0  0  0  0  0  0  0  0  0  0  0
    3.7320    1.0600    0.0000 C   0  0  0  0  0  0  0  0  0  0  0  0
    2.8660   -0.4400    0.0000 C   0  0  0  0  0  0  0  0  0  0  0  0
    2.8660    1.5600    0.0000 C   0  0  0  0  0  0  0  0  0  0  0  0
   14.1244   -1.9400    0.0000 C   0  0  0  0  0  0  0  0  0  0  0  0
    2.0000    0.0600    0.0000 C   0  0  0  0  0  0  0  0  0  0  0  0
    2.0000    1.0600    0.0000 C   0  0  0  0  0  0  0  0  0  0  0  0
   14.1244    1.0600    0.0000 C   0  0  0  0  0  0  0  0  0  0  0  0
   15.8564   -1.9400    0.0000 C   0  0  0  0  0  0  0  0  0  0  0  0
   10.3312   -0.1300    0.0000 H   0  0  0  0  0  0  0  0  0  0  0  0
    8.9282   -2.5600    0.0000 H   0  0  0  0  0  0  0  0  0  0  0  0
   11.5263   -3.0600    0.0000 H   0  0  0  0  0  0  0  0  0  0  0  0
    8.9282    0.6800    0.0000 H   0  0  0  0  0  0  0  0  0  0  0  0
    7.5252   -1.7500    0.0000 H   0  0  0  0  0  0  0  0  0  0  0  0
    7.1962    0.6800    0.0000 H   0  0  0  0  0  0  0  0  0  0  0  0
   11.8554   -0.6300    0.0000 H   0  0  0  0  0  0  0  0  0  0  0  0
    5.4641    0.6800    0.0000 H   0  0  0  0  0  0  0  0  0  0  0  0
    4.5981   -1.0600    0.0000 H   0  0  0  0  0  0  0  0  0  0  0  0
    4.2690    1.3700    0.0000 H   0  0  0  0  0  0  0  0  0  0  0  0
    2.8660   -1.0600    0.0000 H   0  0  0  0  0  0  0  0  0  0  0  0
    1.4631   -0.2500    0.0000 H   0  0  0  0  0  0  0  0  0  0  0  0
    1.4631    1.3700    0.0000 H   0  0  0  0  0  0  0  0  0  0  0  0
   14.4344    0.5231    0.0000 H   0  0  0  0  0  0  0  0  0  0  0  0
   14.6613    1.3700    0.0000 H   0  0  0  0  0  0  0  0  0  0  0  0
   13.8144    1.5969    0.0000 H   0  0  0  0  0  0  0  0  0  0  0  0
   16.1664   -2.4769    0.0000 H   0  0  0  0  0  0  0  0  0  0  0  0
   16.3933   -1.6300    0.0000 H   0  0  0  0  0  0  0  0  0  0  0  0
   15.5464   -1.4031    0.0000 H   0  0  0  0  0  0  0  0  0  0  0  0
  1  2  2  0  0  0  0
  1  3  2  0  0  0  0
  1  9  1  0  0  0  0
  1 14  1  0  0  0  0
  4 25  1  0  0  0  0
  4 33  1  0  0  0  0
  5 30  1  0  0  0  0
  5 34  1  0  0  0  0
  6 22  2  0  0  0  0
  7 13  1  0  0  0  0
  8 13  2  0  0  0  0
  9 20  1  0  0  0  0
  9 37  1  0  0  0  0
 10 17  1  0  0  0  0
 10 22  1  0  0  0  0
 10 40  1  0  0  0  0
 11 20  1  0  0  0  0
 11 30  2  0  0  0  0
 12 25  2  0  0  0  0
 12 30  1  0  0  0  0
 13 29  1  0  0  0  0
 14 15  2  0  0  0  0
 14 16  1  0  0  0  0
 15 18  1  0  0  0  0
 15 35  1  0  0  0  0
 16 19  2  0  0  0  0
 16 36  1  0  0  0  0
 17 18  2  0  0  0  0
 17 19  1  0  0  0  0
 18 38  1  0  0  0  0
 19 39  1  0  0  0  0
 20 21  2  0  0  0  0
 21 25  1  0  0  0  0
 21 41  1  0  0  0  0
 22 24  1  0  0  0  0
 23 26  1  0  0  0  0
 23 27  2  0  0  0  0
 23 28  1  0  0  0  0
 24 26  2  0  0  0  0
 24 42  1  0  0  0  0
 26 43  1  0  0  0  0
 27 29  1  0  0  0  0
 27 44  1  0  0  0  0
 28 31  2  0  0  0  0
 28 45  1  0  0  0  0
 29 32  2  0  0  0  0
 31 32  1  0  0  0  0
 31 46  1  0  0  0  0
 32 47  1  0  0  0  0
 33 48  1  0  0  0  0
 33 49  1  0  0  0  0
 33 50  1  0  0  0  0
 34 51  1  0  0  0  0
 34 52  1  0  0  0  0
 34 53  1  0  0  0  0
M  CHG  2   7  -1  13   1
M  END
> <PUBCHEM_COMPOUND_CID>
26253513

> <PUBCHEM_COMPOUND_CANONICALIZED>
1

> <PUBCHEM_CACTVS_COMPLEXITY>
820

> <PUBCHEM_CACTVS_HBOND_ACCEPTOR>
10

> <PUBCHEM_CACTVS_HBOND_DONOR>
2

> <PUBCHEM_CACTVS_ROTATABLE_BOND>
8

> <PUBCHEM_CACTVS_SUBSKEYS>
AAADceB7uABAAAAAAAAAAAAAAAAAAAAAAAA8YIAAAAAAAAAB0AAAHgQUQAAADAiB2gIz9ZbYVAKpAidyd3DCiDkhIqApmDg2bNqMLCLE+dmEJChqlArI6acQgAAOAAQAQAAAAAAACACAAAAAAAAAAAAAAA==

> <PUBCHEM_IUPAC_OPENEYE_NAME>
(E)-N-[4-[(2,6-dimethoxypyrimidin-4-yl)sulfamoyl]phenyl]-3-(3-nitrophenyl)prop-2-enamide

> <PUBCHEM_IUPAC_CAS_NAME>
(E)-N-[4-[(2,6-dimethoxy-4-pyrimidinyl)sulfamoyl]phenyl]-3-(3-nitrophenyl)-2-propenamide

> <PUBCHEM_IUPAC_NAME>
(E)-N-[4-[(2,6-dimethoxypyrimidin-4-yl)sulfamoyl]phenyl]-3-(3-nitrophenyl)prop-2-enamide

> <PUBCHEM_IUPAC_SYSTEMATIC_NAME>
(E)-N-[4-[(2,6-dimethoxypyrimidin-4-yl)sulfamoyl]phenyl]-3-(3-nitrophenyl)prop-2-enamide

> <PUBCHEM_IUPAC_TRADITIONAL_NAME>
(E)-N-[4-[(2,6-dimethoxypyrimidin-4-yl)sulfamoyl]phenyl]-3-(3-nitrophenyl)acrylamide

> <PUBCHEM_IUPAC_INCHI>
InChI=1S/C21H19N5O7S/c1-32-20-13-18(23-21(24-20)33-2)25-34(30,31)17-9-7-15(8-10-17)22-19(27)11-6-14-4-3-5-16(12-14)26(28)29/h3-13H,1-2H3,(H,22,27)(H,23,24,25)/b11-6+

> <PUBCHEM_IUPAC_INCHIKEY>
ZWJHZVUQMLBBSL-IZZDOVSWSA-N

> <PUBCHEM_XLOGP3>
3.4

> <PUBCHEM_EXACT_MASS>
485.100519

> <PUBCHEM_MOLECULAR_FORMULA>
C21H19N5O7S

> <PUBCHEM_MOLECULAR_WEIGHT>
485.46986

> <PUBCHEM_OPENEYE_CAN_SMILES>
COC1=NC(=NC(=C1)NS(=O)(=O)C2=CC=C(C=C2)NC(=O)C=CC3=CC(=CC=C3)[N+](=O)[O-])OC

> <PUBCHEM_OPENEYE_ISO_SMILES>
COC1=NC(=NC(=C1)NS(=O)(=O)C2=CC=C(C=C2)NC(=O)/C=C/C3=CC(=CC=C3)[N+](=O)[O-])OC

> <PUBCHEM_CACTVS_TPSA>
174

> <PUBCHEM_MONOISOTOPIC_WEIGHT>
485.100519

> <PUBCHEM_TOTAL_CHARGE>
0

> <PUBCHEM_HEAVY_ATOM_COUNT>
34

> <PUBCHEM_ATOM_DEF_STEREO_COUNT>
0

> <PUBCHEM_ATOM_UDEF_STEREO_COUNT>
0

> <PUBCHEM_BOND_DEF_STEREO_COUNT>
1

> <PUBCHEM_BOND_UDEF_STEREO_COUNT>
0

> <PUBCHEM_ISOTOPIC_ATOM_COUNT>
0

> <PUBCHEM_COMPONENT_COUNT>
1

> <PUBCHEM_CACTVS_TAUTO_COUNT>
6

> <PUBCHEM_COORDINATE_TYPE>
1
5
255

> <PUBCHEM_BONDANNOTATIONS>
11  20  8
11  30  8
12  25  8
12  30  8
14  15  8
14  16  8
15  18  8
16  19  8
17  18  8
17  19  8
20  21  8
21  25  8
23  27  8
23  28  8
27  29  8
28  31  8
29  32  8
31  32  8

$$$$
26264286
  -OEChem-03091303422D

 29 30  0     0  0  0  0  0  0999 V2000
    4.5981    4.2500    0.0000 I   0  0  0  0  0  0  0  0  0  0  0  0
    2.0000   -1.2500    0.0000 Cl  0  0  0  0  0  0  0  0  0  0  0  0
    5.4641   -0.2500    0.0000 O   0  0  0  0  0  0  0  0  0  0  0  0
    3.7320   -0.2500    0.0000 N   0  0  0  0  0  0  0  0  0  0  0  0
    3.7320   -1.2500    0.0000 C   0  0  0  0  0  0  0  0  0  0  0  0
    3.7320   -3.2500    0.0000 C   0  0  0  0  0  0  0  0  0  0  0  0
    2.8660   -1.7500    0.0000 C   0  0  0  0  0  0  0  0  0  0  0  0
    4.5981   -1.7500    0.0000 C   0  0  0  0  0  0  0  0  0  0  0  0
    4.5981    1.2500    0.0000 C   0  0  0  0  0  0  0  0  0  0  0  0
    2.8660   -2.7500    0.0000 C   0  0  0  0  0  0  0  0  0  0  0  0
    4.5981   -2.7500    0.0000 C   0  0  0  0  0  0  0  0  0  0  0  0
    4.5981    0.2500    0.0000 C   0  0  0  0  0  0  0  0  0  0  0  0
    3.7320   -4.2500    0.0000 C   0  0  0  0  0  0  0  0  0  0  0  0
    5.4641    1.7500    0.0000 C   0  0  0  0  0  0  0  0  0  0  0  0
    3.7320    1.7500    0.0000 C   0  0  0  0  0  0  0  0  0  0  0  0
    5.4641    2.7500    0.0000 C   0  0  0  0  0  0  0  0  0  0  0  0
    3.7320    2.7500    0.0000 C   0  0  0  0  0  0  0  0  0  0  0  0
    4.5981    3.2500    0.0000 C   0  0  0  0  0  0  0  0  0  0  0  0
    5.1350   -1.4400    0.0000 H   0  0  0  0  0  0  0  0  0  0  0  0
    3.1951    0.0600    0.0000 H   0  0  0  0  0  0  0  0  0  0  0  0
    2.3291   -3.0600    0.0000 H   0  0  0  0  0  0  0  0  0  0  0  0
    5.1350   -3.0600    0.0000 H   0  0  0  0  0  0  0  0  0  0  0  0
    3.1120   -4.2500    0.0000 H   0  0  0  0  0  0  0  0  0  0  0  0
    3.7320   -4.8700    0.0000 H   0  0  0  0  0  0  0  0  0  0  0  0
    4.3520   -4.2500    0.0000 H   0  0  0  0  0  0  0  0  0  0  0  0
    6.0010    1.4400    0.0000 H   0  0  0  0  0  0  0  0  0  0  0  0
    3.1951    1.4400    0.0000 H   0  0  0  0  0  0  0  0  0  0  0  0
    6.0010    3.0600    0.0000 H   0  0  0  0  0  0  0  0  0  0  0  0
    3.1951    3.0600    0.0000 H   0  0  0  0  0  0  0  0  0  0  0  0
  1 18  1  0  0  0  0
  2  7  1  0  0  0  0
  3 12  2  0  0  0  0
  4  5  1  0  0  0  0
  4 12  1  0  0  0  0
  4 20  1  0  0  0  0
  5  7  2  0  0  0  0
  5  8  1  0  0  0  0
  6 10  2  0  0  0  0
  6 11  1  0  0  0  0
  6 13  1  0  0  0  0
  7 10  1  0  0  0  0
  8 11  2  0  0  0  0
  8 19  1  0  0  0  0
  9 12  1  0  0  0  0
  9 14  2  0  0  0  0
  9 15  1  0  0  0  0
 10 21  1  0  0  0  0
 11 22  1  0  0  0  0
 13 23  1  0  0  0  0
 13 24  1  0  0  0  0
 13 25  1  0  0  0  0
 14 16  1  0  0  0  0
 14 26  1  0  0  0  0
 15 17  2  0  0  0  0
 15 27  1  0  0  0  0
 16 18  2  0  0  0  0
 16 28  1  0  0  0  0
 17 18  1  0  0  0  0
 17 29  1  0  0  0  0
M  END
> <PUBCHEM_COMPOUND_CID>
26264286

> <PUBCHEM_COMPOUND_CANONICALIZED>
1

> <PUBCHEM_CACTVS_COMPLEXITY>
292

> <PUBCHEM_CACTVS_HBOND_ACCEPTOR>
1

> <PUBCHEM_CACTVS_HBOND_DONOR>
1

> <PUBCHEM_CACTVS_ROTATABLE_BOND>
2

> <PUBCHEM_CACTVS_SUBSKEYS>
AAADccByIAAEAgAAAAAAAAAAAAAAAAAAAAAwYAAAAAAAAAABQAAAHgIwAAAADAqDmCAywILAAACIAiVSUACCAAAlBwAIiAEAZsgIIDLBl5HEIQhglADIyYcYiACOCAAAIAAAABAQAABAAAAAIAAAAAAAAA==

> <PUBCHEM_IUPAC_OPENEYE_NAME>
N-(2-chloro-4-methyl-phenyl)-4-iodo-benzamide

> <PUBCHEM_IUPAC_CAS_NAME>
N-(2-chloro-4-methylphenyl)-4-iodobenzamide

> <PUBCHEM_IUPAC_NAME>
N-(2-chloro-4-methylphenyl)-4-iodobenzamide

> <PUBCHEM_IUPAC_SYSTEMATIC_NAME>
N-(2-chloranyl-4-methyl-phenyl)-4-iodanyl-benzamide

> <PUBCHEM_IUPAC_TRADITIONAL_NAME>
N-(2-chloro-4-methyl-phenyl)-4-iodo-benzamide

> <PUBCHEM_IUPAC_INCHI>
InChI=1S/C14H11ClINO/c1-9-2-7-13(12(15)8-9)17-14(18)10-3-5-11(16)6-4-10/h2-8H,1H3,(H,17,18)

> <PUBCHEM_IUPAC_INCHIKEY>
QJXQYDBRSHGKNM-UHFFFAOYSA-N

> <PUBCHEM_XLOGP3>
4.7

> <PUBCHEM_EXACT_MASS>
370.95739

> <PUBCHEM_MOLECULAR_FORMULA>
C14H11ClINO

> <PUBCHEM_MOLECULAR_WEIGHT>
371.60071

> <PUBCHEM_OPENEYE_CAN_SMILES>
CC1=CC(=C(C=C1)NC(=O)C2=CC=C(C=C2)I)Cl

> <PUBCHEM_OPENEYE_ISO_SMILES>
CC1=CC(=C(C=C1)NC(=O)C2=CC=C(C=C2)I)Cl

> <PUBCHEM_CACTVS_TPSA>
29.1

> <PUBCHEM_MONOISOTOPIC_WEIGHT>
370.95739

> <PUBCHEM_TOTAL_CHARGE>
0

> <PUBCHEM_HEAVY_ATOM_COUNT>
18

> <PUBCHEM_ATOM_DEF_STEREO_COUNT>
0

> <PUBCHEM_ATOM_UDEF_STEREO_COUNT>
0

> <PUBCHEM_BOND_DEF_STEREO_COUNT>
0

> <PUBCHEM_BOND_UDEF_STEREO_COUNT>
0

> <PUBCHEM_ISOTOPIC_ATOM_COUNT>
0

> <PUBCHEM_COMPONENT_COUNT>
1

> <PUBCHEM_CACTVS_TAUTO_COUNT>
2

> <PUBCHEM_COORDINATE_TYPE>
1
5
255

> <PUBCHEM_BONDANNOTATIONS>
14  16  8
15  17  8
16  18  8
17  18  8
5  7  8
5  8  8
6  10  8
6  11  8
7  10  8
8  11  8
9  14  8
9  15  8

$$$$
26267856
  -OEChem-03091303422D

 42 43  0     0  0  0  0  0  0999 V2000
    6.3301    2.0000    0.0000 S   0  0  0  0  0  0  0  0  0  0  0  0
    5.4641   -2.5000    0.0000 S   0  0  0  0  0  0  0  0  0  0  0  0
    7.1962    5.5000    0.0000 F   0  0  0  0  0  0  0  0  0  0  0  0
    8.1962    4.5000    0.0000 F   0  0  0  0  0  0  0  0  0  0  0  0
    6.1962    4.5000    0.0000 F   0  0  0  0  0  0  0  0  0  0  0  0
    7.3301    2.0000    0.0000 O   0  0  0  0  0  0  0  0  0  0  0  0
    5.3301    2.0000    0.0000 O   0  0  0  0  0  0  0  0  0  0  0  0
    5.9641   -3.3660    0.0000 O   0  0  0  0  0  0  0  0  0  0  0  0
    4.9641   -1.6340    0.0000 O   0  0  0  0  0  0  0  0  0  0  0  0
    2.0000   -4.5000    0.0000 O   0  0  0  0  0  0  0  0  0  0  0  0
    6.3301   -2.0000    0.0000 N   0  0  0  0  0  0  0  0  0  0  0  0
    6.3301    3.0000    0.0000 N   0  0  0  0  0  0  0  0  0  0  0  0
    6.3301    1.0000    0.0000 C   0  0  0  0  0  0  0  0  0  0  0  0
    6.3301   -1.0000    0.0000 C   0  0  0  0  0  0  0  0  0  0  0  0
    5.4641    0.5000    0.0000 C   0  0  0  0  0  0  0  0  0  0  0  0
    7.1962    0.5000    0.0000 C   0  0  0  0  0  0  0  0  0  0  0  0
    4.5981   -3.0000    0.0000 C   0  0  0  0  0  0  0  0  0  0  0  0
    5.4641   -0.5000    0.0000 C   0  0  0  0  0  0  0  0  0  0  0  0
    7.1962   -0.5000    0.0000 C   0  0  0  0  0  0  0  0  0  0  0  0
    7.1962    3.5000    0.0000 C   0  0  0  0  0  0  0  0  0  0  0  0
    3.7320   -2.5000    0.0000 C   0  0  0  0  0  0  0  0  0  0  0  0
    4.5981   -4.0000    0.0000 C   0  0  0  0  0  0  0  0  0  0  0  0
    7.1962    4.5000    0.0000 C   0  0  0  0  0  0  0  0  0  0  0  0
    2.8660   -3.0000    0.0000 C   0  0  0  0  0  0  0  0  0  0  0  0
    3.7320   -4.5000    0.0000 C   0  0  0  0  0  0  0  0  0  0  0  0
    2.8660   -4.0000    0.0000 C   0  0  0  0  0  0  0  0  0  0  0  0
    2.0000   -5.5000    0.0000 C   0  0  0  0  0  0  0  0  0  0  0  0
    6.8671   -2.3100    0.0000 H   0  0  0  0  0  0  0  0  0  0  0  0
    4.9272    0.8100    0.0000 H   0  0  0  0  0  0  0  0  0  0  0  0
    7.7331    0.8100    0.0000 H   0  0  0  0  0  0  0  0  0  0  0  0
    4.9272   -0.8100    0.0000 H   0  0  0  0  0  0  0  0  0  0  0  0
    7.7331   -0.8100    0.0000 H   0  0  0  0  0  0  0  0  0  0  0  0
    5.7932    3.3100    0.0000 H   0  0  0  0  0  0  0  0  0  0  0  0
    7.4082    2.9174    0.0000 H   0  0  0  0  0  0  0  0  0  0  0  0
    7.8067    3.6077    0.0000 H   0  0  0  0  0  0  0  0  0  0  0  0
    3.7320   -1.8800    0.0000 H   0  0  0  0  0  0  0  0  0  0  0  0
    5.1350   -4.3100    0.0000 H   0  0  0  0  0  0  0  0  0  0  0  0
    2.3291   -2.6900    0.0000 H   0  0  0  0  0  0  0  0  0  0  0  0
    3.7320   -5.1200    0.0000 H   0  0  0  0  0  0  0  0  0  0  0  0
    1.3800   -5.5000    0.0000 H   0  0  0  0  0  0  0  0  0  0  0  0
    2.0000   -6.1200    0.0000 H   0  0  0  0  0  0  0  0  0  0  0  0
    2.6200   -5.5000    0.0000 H   0  0  0  0  0  0  0  0  0  0  0  0
  1  6  2  0  0  0  0
  1  7  2  0  0  0  0
  1 12  1  0  0  0  0
  1 13  1  0  0  0  0
  2  8  2  0  0  0  0
  2  9  2  0  0  0  0
  2 11  1  0  0  0  0
  2 17  1  0  0  0  0
  3 23  1  0  0  0  0
  4 23  1  0  0  0  0
  5 23  1  0  0  0  0
 10 26  1  0  0  0  0
 10 27  1  0  0  0  0
 11 14  1  0  0  0  0
 11 28  1  0  0  0  0
 12 20  1  0  0  0  0
 12 33  1  0  0  0  0
 13 15  2  0  0  0  0
 13 16  1  0  0  0  0
 14 18  2  0  0  0  0
 14 19  1  0  0  0  0
 15 18  1  0  0  0  0
 15 29  1  0  0  0  0
 16 19  2  0  0  0  0
 16 30  1  0  0  0  0
 17 21  2  0  0  0  0
 17 22  1  0  0  0  0
 18 31  1  0  0  0  0
 19 32  1  0  0  0  0
 20 23  1  0  0  0  0
 20 34  1  0  0  0  0
 20 35  1  0  0  0  0
 21 24  1  0  0  0  0
 21 36  1  0  0  0  0
 22 25  2  0  0  0  0
 22 37  1  0  0  0  0
 24 26  2  0  0  0  0
 24 38  1  0  0  0  0
 25 26  1  0  0  0  0
 25 39  1  0  0  0  0
 27 40  1  0  0  0  0
 27 41  1  0  0  0  0
 27 42  1  0  0  0  0
M  END
> <PUBCHEM_COMPOUND_CID>
26267856

> <PUBCHEM_COMPOUND_CANONICALIZED>
1

> <PUBCHEM_CACTVS_COMPLEXITY>
670

> <PUBCHEM_CACTVS_HBOND_ACCEPTOR>
10

> <PUBCHEM_CACTVS_HBOND_DONOR>
2

> <PUBCHEM_CACTVS_ROTATABLE_BOND>
7

> <PUBCHEM_CACTVS_SUBSKEYS>
AAADccBzOYBgAAAAAAAAAAAAAAAAAAAAAAAwYAAAAAAAAAABQAAAHwQQQAAACAzB0BYyx4BABAKAACRCQHDCCBAgIgAIiJgGbIgMJiKEsZuAMCBk0BEI6AeQQAAAAIQAAAAAAAABCAAAAAAAAAAAAAAAAA==

> <PUBCHEM_IUPAC_OPENEYE_NAME>
4-[(4-methoxyphenyl)sulfonylamino]-N-(2,2,2-trifluoroethyl)benzenesulfonamide

> <PUBCHEM_IUPAC_CAS_NAME>
4-[(4-methoxyphenyl)sulfonylamino]-N-(2,2,2-trifluoroethyl)benzenesulfonamide

> <PUBCHEM_IUPAC_NAME>
4-[(4-methoxyphenyl)sulfonylamino]-N-(2,2,2-trifluoroethyl)benzenesulfonamide

> <PUBCHEM_IUPAC_SYSTEMATIC_NAME>
4-[(4-methoxyphenyl)sulfonylamino]-N-[2,2,2-tris(fluoranyl)ethyl]benzenesulfonamide

> <PUBCHEM_IUPAC_TRADITIONAL_NAME>
4-[(4-methoxyphenyl)sulfonylamino]-N-(2,2,2-trifluoroethyl)benzenesulfonamide

> <PUBCHEM_IUPAC_INCHI>
InChI=1S/C15H15F3N2O5S2/c1-25-12-4-8-14(9-5-12)27(23,24)20-11-2-6-13(7-3-11)26(21,22)19-10-15(16,17)18/h2-9,19-20H,10H2,1H3

> <PUBCHEM_IUPAC_INCHIKEY>
LOLBNSLFLVOANP-UHFFFAOYSA-N

> <PUBCHEM_XLOGP3>
2.3

> <PUBCHEM_EXACT_MASS>
424.037448

> <PUBCHEM_MOLECULAR_FORMULA>
C15H15F3N2O5S2

> <PUBCHEM_MOLECULAR_WEIGHT>
424.41521

> <PUBCHEM_OPENEYE_CAN_SMILES>
COC1=CC=C(C=C1)S(=O)(=O)NC2=CC=C(C=C2)S(=O)(=O)NCC(F)(F)F

> <PUBCHEM_OPENEYE_ISO_SMILES>
COC1=CC=C(C=C1)S(=O)(=O)NC2=CC=C(C=C2)S(=O)(=O)NCC(F)(F)F

> <PUBCHEM_CACTVS_TPSA>
118

> <PUBCHEM_MONOISOTOPIC_WEIGHT>
424.037448

> <PUBCHEM_TOTAL_CHARGE>
0

> <PUBCHEM_HEAVY_ATOM_COUNT>
27

> <PUBCHEM_ATOM_DEF_STEREO_COUNT>
0

> <PUBCHEM_ATOM_UDEF_STEREO_COUNT>
0

> <PUBCHEM_BOND_DEF_STEREO_COUNT>
0

> <PUBCHEM_BOND_UDEF_STEREO_COUNT>
0

> <PUBCHEM_ISOTOPIC_ATOM_COUNT>
0

> <PUBCHEM_COMPONENT_COUNT>
1

> <PUBCHEM_CACTVS_TAUTO_COUNT>
1

> <PUBCHEM_COORDINATE_TYPE>
1
5
255

> <PUBCHEM_BONDANNOTATIONS>
13  15  8
13  16  8
14  18  8
14  19  8
15  18  8
16  19  8
17  21  8
17  22  8
21  24  8
22  25  8
24  26  8
25  26  8

$$$$
