24125447
  -OEChem-11301217342D

 49 50  0     1  0  0  0  0  0999 V2000
    6.6353   -0.8956    0.0000 O   0  0  0  0  0  0  0  0  0  0  0  0
    6.2781    0.7993    0.0000 N   0  0  0  0  0  0  0  0  0  0  0  0
    4.9889   -0.3575    0.0000 N   0  0  0  0  0  0  0  0  0  0  0  0
    7.2566    1.0055    0.0000 C   0  0  0  0  0  0  0  0  0  0  0  0
    8.5458    2.1622    0.0000 C   0  0  0  0  0  0  0  0  0  0  0  0
    8.2351    1.2117    0.0000 C   0  0  0  0  0  0  0  0  0  0  0  0
    4.6783   -1.3080    0.0000 C   0  0  3  0  0  0  0  0  0  0  0  0
    5.2619   -2.1127    0.0000 C   0  0  0  0  0  0  0  0  0  0  0  0
    7.0504    1.9840    0.0000 C   0  0  0  0  0  0  0  0  0  0  0  0
    7.4628    0.0270    0.0000 C   0  0  0  0  0  0  0  0  0  0  0  0
    4.6783   -2.9175    0.0000 C   0  0  0  0  0  0  0  0  0  0  0  0
    3.7320   -1.6127    0.0000 C   0  0  0  0  0  0  0  0  0  0  0  0
    8.8564    3.1127    0.0000 C   0  0  0  0  0  0  0  0  0  0  0  0
    9.4963    1.8516    0.0000 C   0  0  0  0  0  0  0  0  0  0  0  0
    7.5952    2.4729    0.0000 C   0  0  0  0  0  0  0  0  0  0  0  0
    3.7320   -2.6127    0.0000 C   0  0  0  0  0  0  0  0  0  0  0  0
    5.9674   -0.1513    0.0000 C   0  0  0  0  0  0  0  0  0  0  0  0
    2.8660   -1.1127    0.0000 C   0  0  0  0  0  0  0  0  0  0  0  0
    2.8660   -3.1127    0.0000 C   0  0  0  0  0  0  0  0  0  0  0  0
    2.0000   -1.6127    0.0000 C   0  0  0  0  0  0  0  0  0  0  0  0
    2.0000   -2.6127    0.0000 C   0  0  0  0  0  0  0  0  0  0  0  0
    8.2557    0.5920    0.0000 H   0  0  0  0  0  0  0  0  0  0  0  0
    8.8489    1.1243    0.0000 H   0  0  0  0  0  0  0  0  0  0  0  0
    5.2908   -1.2118    0.0000 H   0  0  0  0  0  0  0  0  0  0  0  0
    5.7227   -2.5275    0.0000 H   0  0  0  0  0  0  0  0  0  0  0  0
    5.7227   -1.6980    0.0000 H   0  0  0  0  0  0  0  0  0  0  0  0
    5.8640    1.2607    0.0000 H   0  0  0  0  0  0  0  0  0  0  0  0
    6.8562   -0.1009    0.0000 H   0  0  0  0  0  0  0  0  0  0  0  0
    7.5907   -0.5797    0.0000 H   0  0  0  0  0  0  0  0  0  0  0  0
    8.0695    0.1548    0.0000 H   0  0  0  0  0  0  0  0  0  0  0  0
    7.6571    2.1118    0.0000 H   0  0  0  0  0  0  0  0  0  0  0  0
    6.9225    2.5907    0.0000 H   0  0  0  0  0  0  0  0  0  0  0  0
    6.4437    1.8561    0.0000 H   0  0  0  0  0  0  0  0  0  0  0  0
    4.4272   -3.4844    0.0000 H   0  0  0  0  0  0  0  0  0  0  0  0
    5.2156   -3.2267    0.0000 H   0  0  0  0  0  0  0  0  0  0  0  0
    7.7879    3.0622    0.0000 H   0  0  0  0  0  0  0  0  0  0  0  0
    7.0059    2.6655    0.0000 H   0  0  0  0  0  0  0  0  0  0  0  0
    7.4026    1.8836    0.0000 H   0  0  0  0  0  0  0  0  0  0  0  0
    9.3037    1.2622    0.0000 H   0  0  0  0  0  0  0  0  0  0  0  0
   10.0856    1.6589    0.0000 H   0  0  0  0  0  0  0  0  0  0  0  0
    9.6889    2.4409    0.0000 H   0  0  0  0  0  0  0  0  0  0  0  0
    9.4458    2.9201    0.0000 H   0  0  0  0  0  0  0  0  0  0  0  0
    9.0490    3.7021    0.0000 H   0  0  0  0  0  0  0  0  0  0  0  0
    8.2671    3.3054    0.0000 H   0  0  0  0  0  0  0  0  0  0  0  0
    4.5749    0.1040    0.0000 H   0  0  0  0  0  0  0  0  0  0  0  0
    2.8660   -0.4927    0.0000 H   0  0  0  0  0  0  0  0  0  0  0  0
    2.8660   -3.7327    0.0000 H   0  0  0  0  0  0  0  0  0  0  0  0
    1.4631   -1.3027    0.0000 H   0  0  0  0  0  0  0  0  0  0  0  0
    1.4631   -2.9227    0.0000 H   0  0  0  0  0  0  0  0  0  0  0  0
  1 17  2  0  0  0  0
  2  4  1  0  0  0  0
  2 17  1  0  0  0  0
  2 27  1  0  0  0  0
  3  7  1  0  0  0  0
  3 17  1  0  0  0  0
  3 45  1  0  0  0  0
  4  6  1  0  0  0  0
  4  9  1  0  0  0  0
  4 10  1  0  0  0  0
  5  6  1  0  0  0  0
  5 13  1  0  0  0  0
  5 14  1  0  0  0  0
  5 15  1  0  0  0  0
  6 22  1  0  0  0  0
  6 23  1  0  0  0  0
  7  8  1  0  0  0  0
  7 12  1  0  0  0  0
  7 24  1  0  0  0  0
  8 11  1  0  0  0  0
  8 25  1  0  0  0  0
  8 26  1  0  0  0  0
  9 31  1  0  0  0  0
  9 32  1  0  0  0  0
  9 33  1  0  0  0  0
 10 28  1  0  0  0  0
 10 29  1  0  0  0  0
 10 30  1  0  0  0  0
 11 16  1  0  0  0  0
 11 34  1  0  0  0  0
 11 35  1  0  0  0  0
 12 16  1  0  0  0  0
 12 18  2  0  0  0  0
 13 42  1  0  0  0  0
 13 43  1  0  0  0  0
 13 44  1  0  0  0  0
 14 39  1  0  0  0  0
 14 40  1  0  0  0  0
 14 41  1  0  0  0  0
 15 36  1  0  0  0  0
 15 37  1  0  0  0  0
 15 38  1  0  0  0  0
 16 19  2  0  0  0  0
 18 20  1  0  0  0  0
 18 46  1  0  0  0  0
 19 21  1  0  0  0  0
 19 47  1  0  0  0  0
 20 21  2  0  0  0  0
 20 48  1  0  0  0  0
 21 49  1  0  0  0  0
M  END
> <PUBCHEM_COMPOUND_CID>
24125447

> <PUBCHEM_COMPOUND_CANONICALIZED>
1

> <PUBCHEM_CACTVS_COMPLEXITY>
370

> <PUBCHEM_CACTVS_HBOND_ACCEPTOR>
1

> <PUBCHEM_CACTVS_HBOND_DONOR>
2

> <PUBCHEM_CACTVS_ROTATABLE_BOND>
4

> <PUBCHEM_CACTVS_SUBSKEYS>
AAADceB7IAAAAAAAAAAAAAAAAAAAAYAAAAAwAAAAAAAAAGABAAAAHgAQAAAADqjBGAQzAILAAACIAiBCEACCAAAgAAAIiIAIBIiIICKAkRGEIAholgIIiAcQgIAPgAAAAAAQAAAAAAAAACAAACAACQAAAA==

> <PUBCHEM_IUPAC_OPENEYE_NAME>
1-indan-1-yl-3-(1,1,3,3-tetramethylbutyl)urea

> <PUBCHEM_IUPAC_CAS_NAME>
1-(2,3-dihydro-1H-inden-1-yl)-3-(2,4,4-trimethylpentan-2-yl)urea

> <PUBCHEM_IUPAC_NAME>
1-(2,3-dihydro-1H-inden-1-yl)-3-(2,4,4-trimethylpentan-2-yl)urea

> <PUBCHEM_IUPAC_SYSTEMATIC_NAME>
1-(2,3-dihydro-1H-inden-1-yl)-3-(2,4,4-trimethylpentan-2-yl)urea

> <PUBCHEM_IUPAC_TRADITIONAL_NAME>
1-indan-1-yl-3-(1,1,3,3-tetramethylbutyl)urea

> <PUBCHEM_IUPAC_INCHI>
InChI=1S/C18H28N2O/c1-17(2,3)12-18(4,5)20-16(21)19-15-11-10-13-8-6-7-9-14(13)15/h6-9,15H,10-12H2,1-5H3,(H2,19,20,21)

> <PUBCHEM_IUPAC_INCHIKEY>
CHCUHXFGPUSZDO-UHFFFAOYSA-N

> <PUBCHEM_XLOGP3>
4.5

> <PUBCHEM_EXACT_MASS>
288.220164

> <PUBCHEM_MOLECULAR_FORMULA>
C18H28N2O

> <PUBCHEM_MOLECULAR_WEIGHT>
288.42772

> <PUBCHEM_OPENEYE_CAN_SMILES>
CC(C)(C)CC(C)(C)NC(=O)NC1CCC2=CC=CC=C12

> <PUBCHEM_OPENEYE_ISO_SMILES>
CC(C)(C)CC(C)(C)NC(=O)NC1CCC2=CC=CC=C12

> <PUBCHEM_CACTVS_TPSA>
41.1

> <PUBCHEM_MONOISOTOPIC_WEIGHT>
288.220164

> <PUBCHEM_TOTAL_CHARGE>
0

> <PUBCHEM_HEAVY_ATOM_COUNT>
21

> <PUBCHEM_ATOM_DEF_STEREO_COUNT>
0

> <PUBCHEM_ATOM_UDEF_STEREO_COUNT>
1

> <PUBCHEM_BOND_DEF_STEREO_COUNT>
0

> <PUBCHEM_BOND_UDEF_STEREO_COUNT>
0

> <PUBCHEM_ISOTOPIC_ATOM_COUNT>
0

> <PUBCHEM_COMPONENT_COUNT>
1

> <PUBCHEM_CACTVS_TAUTO_COUNT>
3

> <PUBCHEM_COORDINATE_TYPE>
1
5
255

> <PUBCHEM_BONDANNOTATIONS>
12  16  8
12  18  8
16  19  8
18  20  8
19  21  8
20  21  8
7  3  3

$$$$
24128933
  -OEChem-11301217342D

 43 44  0     0  0  0  0  0  0999 V2000
    5.4641    1.0670    0.0000 O   0  0  0  0  0  0  0  0  0  0  0  0
    4.5981    2.5670    0.0000 N   0  0  0  0  0  0  0  0  0  0  0  0
    3.7320    1.0670    0.0000 N   0  0  0  0  0  0  0  0  0  0  0  0
    5.4641    4.0670    0.0000 C   0  0  0  0  0  0  0  0  0  0  0  0
    5.9641    4.9330    0.0000 C   0  0  0  0  0  0  0  0  0  0  0  0
    4.9641    4.9330    0.0000 C   0  0  0  0  0  0  0  0  0  0  0  0
    5.4641    3.0670    0.0000 C   0  0  0  0  0  0  0  0  0  0  0  0
    4.5981    1.5670    0.0000 C   0  0  0  0  0  0  0  0  0  0  0  0
    3.7320    0.0670    0.0000 C   0  0  0  0  0  0  0  0  0  0  0  0
    3.7320   -2.9330    0.0000 C   0  0  0  0  0  0  0  0  0  0  0  0
    3.7320   -1.9330    0.0000 C   0  0  0  0  0  0  0  0  0  0  0  0
    4.5981   -3.4330    0.0000 C   0  0  0  0  0  0  0  0  0  0  0  0
    2.8660   -0.4330    0.0000 C   0  0  0  0  0  0  0  0  0  0  0  0
    2.8660   -1.4330    0.0000 C   0  0  0  0  0  0  0  0  0  0  0  0
    4.5981   -4.4330    0.0000 C   0  0  0  0  0  0  0  0  0  0  0  0
    4.5981   -0.4330    0.0000 C   0  0  0  0  0  0  0  0  0  0  0  0
    4.5981   -1.4330    0.0000 C   0  0  0  0  0  0  0  0  0  0  0  0
    2.0000    0.0670    0.0000 C   0  0  0  0  0  0  0  0  0  0  0  0
    5.4641   -4.9330    0.0000 C   0  0  0  0  0  0  0  0  0  0  0  0
    6.0630    3.9065    0.0000 H   0  0  0  0  0  0  0  0  0  0  0  0
    6.5467    4.7210    0.0000 H   0  0  0  0  0  0  0  0  0  0  0  0
    6.0718    5.5436    0.0000 H   0  0  0  0  0  0  0  0  0  0  0  0
    4.8564    5.5436    0.0000 H   0  0  0  0  0  0  0  0  0  0  0  0
    4.3815    4.7210    0.0000 H   0  0  0  0  0  0  0  0  0  0  0  0
    5.6762    2.4844    0.0000 H   0  0  0  0  0  0  0  0  0  0  0  0
    6.0747    3.1747    0.0000 H   0  0  0  0  0  0  0  0  0  0  0  0
    4.0611    2.8770    0.0000 H   0  0  0  0  0  0  0  0  0  0  0  0
    3.1951    1.3770    0.0000 H   0  0  0  0  0  0  0  0  0  0  0  0
    3.1215   -2.8253    0.0000 H   0  0  0  0  0  0  0  0  0  0  0  0
    3.5200   -3.5156    0.0000 H   0  0  0  0  0  0  0  0  0  0  0  0
    5.2087   -3.5407    0.0000 H   0  0  0  0  0  0  0  0  0  0  0  0
    4.8101   -2.8504    0.0000 H   0  0  0  0  0  0  0  0  0  0  0  0
    2.3291   -1.7430    0.0000 H   0  0  0  0  0  0  0  0  0  0  0  0
    3.9875   -4.3254    0.0000 H   0  0  0  0  0  0  0  0  0  0  0  0
    4.3860   -5.0156    0.0000 H   0  0  0  0  0  0  0  0  0  0  0  0
    5.1350   -0.1230    0.0000 H   0  0  0  0  0  0  0  0  0  0  0  0
    5.1350   -1.7430    0.0000 H   0  0  0  0  0  0  0  0  0  0  0  0
    2.3100    0.6039    0.0000 H   0  0  0  0  0  0  0  0  0  0  0  0
    1.4631    0.3770    0.0000 H   0  0  0  0  0  0  0  0  0  0  0  0
    1.6900   -0.4699    0.0000 H   0  0  0  0  0  0  0  0  0  0  0  0
    5.1541   -5.4700    0.0000 H   0  0  0  0  0  0  0  0  0  0  0  0
    6.0010   -5.2430    0.0000 H   0  0  0  0  0  0  0  0  0  0  0  0
    5.7741   -4.3961    0.0000 H   0  0  0  0  0  0  0  0  0  0  0  0
  1  8  2  0  0  0  0
  2  7  1  0  0  0  0
  2  8  1  0  0  0  0
  2 27  1  0  0  0  0
  3  8  1  0  0  0  0
  3  9  1  0  0  0  0
  3 28  1  0  0  0  0
  4  5  1  0  0  0  0
  4  6  1  0  0  0  0
  4  7  1  0  0  0  0
  4 20  1  0  0  0  0
  5  6  1  0  0  0  0
  5 21  1  0  0  0  0
  5 22  1  0  0  0  0
  6 23  1  0  0  0  0
  6 24  1  0  0  0  0
  7 25  1  0  0  0  0
  7 26  1  0  0  0  0
  9 13  2  0  0  0  0
  9 16  1  0  0  0  0
 10 11  1  0  0  0  0
 10 12  1  0  0  0  0
 10 29  1  0  0  0  0
 10 30  1  0  0  0  0
 11 14  2  0  0  0  0
 11 17  1  0  0  0  0
 12 15  1  0  0  0  0
 12 31  1  0  0  0  0
 12 32  1  0  0  0  0
 13 14  1  0  0  0  0
 13 18  1  0  0  0  0
 14 33  1  0  0  0  0
 15 19  1  0  0  0  0
 15 34  1  0  0  0  0
 15 35  1  0  0  0  0
 16 17  2  0  0  0  0
 16 36  1  0  0  0  0
 17 37  1  0  0  0  0
 18 38  1  0  0  0  0
 18 39  1  0  0  0  0
 18 40  1  0  0  0  0
 19 41  1  0  0  0  0
 19 42  1  0  0  0  0
 19 43  1  0  0  0  0
M  END
> <PUBCHEM_COMPOUND_CID>
24128933

> <PUBCHEM_COMPOUND_CANONICALIZED>
1

> <PUBCHEM_CACTVS_COMPLEXITY>
289

> <PUBCHEM_CACTVS_HBOND_ACCEPTOR>
1

> <PUBCHEM_CACTVS_HBOND_DONOR>
2

> <PUBCHEM_CACTVS_ROTATABLE_BOND>
6

> <PUBCHEM_CACTVS_SUBSKEYS>
AAADceB7IAAAAAAAAAAAAAAAGAAAAAAAAAAwAAAAAAAAAAABAAAAHgAQAAAADQjBGAQzwILAAACIAiRCUACCAAAhAgAIiIAIZIiIICLAkZGEIAholgJIyCcQgMAOCAACAAACAAAQAAQAAAQAAAAAAAAAAA==

> <PUBCHEM_IUPAC_OPENEYE_NAME>
1-(4-butyl-2-methyl-phenyl)-3-(cyclopropylmethyl)urea

> <PUBCHEM_IUPAC_CAS_NAME>
1-(4-butyl-2-methylphenyl)-3-(cyclopropylmethyl)urea

> <PUBCHEM_IUPAC_NAME>
1-(4-butyl-2-methylphenyl)-3-(cyclopropylmethyl)urea

> <PUBCHEM_IUPAC_SYSTEMATIC_NAME>
1-(4-butyl-2-methyl-phenyl)-3-(cyclopropylmethyl)urea

> <PUBCHEM_IUPAC_TRADITIONAL_NAME>
1-(4-butyl-2-methyl-phenyl)-3-(cyclopropylmethyl)urea

> <PUBCHEM_IUPAC_INCHI>
InChI=1S/C16H24N2O/c1-3-4-5-13-8-9-15(12(2)10-13)18-16(19)17-11-14-6-7-14/h8-10,14H,3-7,11H2,1-2H3,(H2,17,18,19)

> <PUBCHEM_IUPAC_INCHIKEY>
LDQAPLUNIPFLHY-UHFFFAOYSA-N

> <PUBCHEM_XLOGP3>
3.7

> <PUBCHEM_EXACT_MASS>
260.188863

> <PUBCHEM_MOLECULAR_FORMULA>
C16H24N2O

> <PUBCHEM_MOLECULAR_WEIGHT>
260.37456

> <PUBCHEM_OPENEYE_CAN_SMILES>
CCCCC1=CC(=C(C=C1)NC(=O)NCC2CC2)C

> <PUBCHEM_OPENEYE_ISO_SMILES>
CCCCC1=CC(=C(C=C1)NC(=O)NCC2CC2)C

> <PUBCHEM_CACTVS_TPSA>
41.1

> <PUBCHEM_MONOISOTOPIC_WEIGHT>
260.188863

> <PUBCHEM_TOTAL_CHARGE>
0

> <PUBCHEM_HEAVY_ATOM_COUNT>
19

> <PUBCHEM_ATOM_DEF_STEREO_COUNT>
0

> <PUBCHEM_ATOM_UDEF_STEREO_COUNT>
0

> <PUBCHEM_BOND_DEF_STEREO_COUNT>
0

> <PUBCHEM_BOND_UDEF_STEREO_COUNT>
0

> <PUBCHEM_ISOTOPIC_ATOM_COUNT>
0

> <PUBCHEM_COMPONENT_COUNT>
1

> <PUBCHEM_CACTVS_TAUTO_COUNT>
3

> <PUBCHEM_COORDINATE_TYPE>
1
5
255

> <PUBCHEM_BONDANNOTATIONS>
11  14  8
11  17  8
13  14  8
16  17  8
9  13  8
9  16  8

$$$$
24133871
  -OEChem-11301217352D

 58 59  0     1  0  0  0  0  0999 V2000
    6.3301   -0.2500    0.0000 O   0  0  0  0  0  0  0  0  0  0  0  0
    3.7320    1.2500    0.0000 O   0  0  0  0  0  0  0  0  0  0  0  0
    3.7320   -0.7500    0.0000 O   0  0  0  0  0  0  0  0  0  0  0  0
    5.4641    2.2500    0.0000 O   0  0  0  0  0  0  0  0  0  0  0  0
    6.3301   -2.2500    0.0000 O   0  0  0  0  0  0  0  0  0  0  0  0
    2.8660   -0.2500    0.0000 O   0  0  0  0  0  0  0  0  0  0  0  0
    4.5981   -2.2500    0.0000 O   0  0  0  0  0  0  0  0  0  0  0  0
    3.7320    2.2500    0.0000 O   0  0  0  0  0  0  0  0  0  0  0  0
    5.4641   -3.7500    0.0000 O   0  0  0  0  0  0  0  0  0  0  0  0
    7.1962    1.2500    0.0000 N   0  0  0  0  0  0  0  0  0  0  0  0
    4.5981    0.7500    0.0000 C   0  0  2  0  0  0  0  0  0  0  0  0
    4.5981   -0.2500    0.0000 C   0  0  2  0  0  0  0  0  0  0  0  0
    5.4641    1.2500    0.0000 C   0  0  1  0  0  0  0  0  0  0  0  0
    5.4641   -0.7500    0.0000 C   0  0  2  0  0  0  0  0  0  0  0  0
    6.3301    0.7500    0.0000 C   0  0  2  0  0  0  0  0  0  0  0  0
    5.4641   -1.7500    0.0000 C   0  0  0  0  0  0  0  0  0  0  0  0
    8.0622    0.7500    0.0000 C   0  0  0  0  0  0  0  0  0  0  0  0
    2.8660    0.7500    0.0000 C   0  0  0  0  0  0  0  0  0  0  0  0
    3.7320   -1.7500    0.0000 C   0  0  0  0  0  0  0  0  0  0  0  0
    4.5981    2.7500    0.0000 C   0  0  0  0  0  0  0  0  0  0  0  0
    8.0622   -0.2500    0.0000 C   0  0  0  0  0  0  0  0  0  0  0  0
    8.9282    1.2500    0.0000 C   0  0  0  0  0  0  0  0  0  0  0  0
    2.0000    1.2500    0.0000 C   0  0  0  0  0  0  0  0  0  0  0  0
    2.8660   -2.2500    0.0000 C   0  0  0  0  0  0  0  0  0  0  0  0
    6.3301   -3.2500    0.0000 C   0  0  0  0  0  0  0  0  0  0  0  0
    4.5981    3.7500    0.0000 C   0  0  0  0  0  0  0  0  0  0  0  0
    8.9282   -0.7500    0.0000 C   0  0  0  0  0  0  0  0  0  0  0  0
    9.7942    0.7500    0.0000 C   0  0  0  0  0  0  0  0  0  0  0  0
    9.7942   -0.2500    0.0000 C   0  0  0  0  0  0  0  0  0  0  0  0
    7.1962   -3.7500    0.0000 C   0  0  0  0  0  0  0  0  0  0  0  0
   10.6603   -0.7500    0.0000 C   0  0  0  0  0  0  0  0  0  0  0  0
    4.5981    1.3700    0.0000 H   0  0  0  0  0  0  0  0  0  0  0  0
    4.5981   -0.8700    0.0000 H   0  0  0  0  0  0  0  0  0  0  0  0
    6.0010    1.5600    0.0000 H   0  0  0  0  0  0  0  0  0  0  0  0
    6.0010   -1.0600    0.0000 H   0  0  0  0  0  0  0  0  0  0  0  0
    6.3301    1.3700    0.0000 H   0  0  0  0  0  0  0  0  0  0  0  0
    4.8535   -1.6423    0.0000 H   0  0  0  0  0  0  0  0  0  0  0  0
    5.2520   -2.3326    0.0000 H   0  0  0  0  0  0  0  0  0  0  0  0
    7.1962    1.8700    0.0000 H   0  0  0  0  0  0  0  0  0  0  0  0
    7.5252   -0.5600    0.0000 H   0  0  0  0  0  0  0  0  0  0  0  0
    8.9282    1.8700    0.0000 H   0  0  0  0  0  0  0  0  0  0  0  0
    2.3100    1.7869    0.0000 H   0  0  0  0  0  0  0  0  0  0  0  0
    1.4631    1.5600    0.0000 H   0  0  0  0  0  0  0  0  0  0  0  0
    1.6900    0.7131    0.0000 H   0  0  0  0  0  0  0  0  0  0  0  0
    2.5560   -1.7131    0.0000 H   0  0  0  0  0  0  0  0  0  0  0  0
    2.3291   -2.5600    0.0000 H   0  0  0  0  0  0  0  0  0  0  0  0
    3.1760   -2.7869    0.0000 H   0  0  0  0  0  0  0  0  0  0  0  0
    5.2181    3.7500    0.0000 H   0  0  0  0  0  0  0  0  0  0  0  0
    4.5981    4.3700    0.0000 H   0  0  0  0  0  0  0  0  0  0  0  0
    3.9781    3.7500    0.0000 H   0  0  0  0  0  0  0  0  0  0  0  0
    8.9282   -1.3700    0.0000 H   0  0  0  0  0  0  0  0  0  0  0  0
   10.3312    1.0600    0.0000 H   0  0  0  0  0  0  0  0  0  0  0  0
    6.8862   -4.2869    0.0000 H   0  0  0  0  0  0  0  0  0  0  0  0
    7.7331   -4.0600    0.0000 H   0  0  0  0  0  0  0  0  0  0  0  0
    7.5062   -3.2131    0.0000 H   0  0  0  0  0  0  0  0  0  0  0  0
   10.3503   -1.2869    0.0000 H   0  0  0  0  0  0  0  0  0  0  0  0
   11.1972   -1.0600    0.0000 H   0  0  0  0  0  0  0  0  0  0  0  0
   10.9703   -0.2131    0.0000 H   0  0  0  0  0  0  0  0  0  0  0  0
  1 14  1  0  0  0  0
  1 15  1  0  0  0  0
 11  2  1  1  0  0  0
  2 18  1  0  0  0  0
 12  3  1  6  0  0  0
  3 19  1  0  0  0  0
 13  4  1  6  0  0  0
  4 20  1  0  0  0  0
  5 16  1  0  0  0  0
  5 25  1  0  0  0  0
  6 18  2  0  0  0  0
  7 19  2  0  0  0  0
  8 20  2  0  0  0  0
  9 25  2  0  0  0  0
 15 10  1  1  0  0  0
 10 17  1  0  0  0  0
 10 39  1  0  0  0  0
 11 12  1  0  0  0  0
 11 13  1  0  0  0  0
 11 32  1  0  0  0  0
 12 14  1  0  0  0  0
 12 33  1  0  0  0  0
 13 15  1  0  0  0  0
 13 34  1  0  0  0  0
 14 16  1  1  0  0  0
 14 35  1  0  0  0  0
 15 36  1  0  0  0  0
 16 37  1  0  0  0  0
 16 38  1  0  0  0  0
 17 21  2  0  0  0  0
 17 22  1  0  0  0  0
 18 23  1  0  0  0  0
 19 24  1  0  0  0  0
 20 26  1  0  0  0  0
 21 27  1  0  0  0  0
 21 40  1  0  0  0  0
 22 28  2  0  0  0  0
 22 41  1  0  0  0  0
 23 42  1  0  0  0  0
 23 43  1  0  0  0  0
 23 44  1  0  0  0  0
 24 45  1  0  0  0  0
 24 46  1  0  0  0  0
 24 47  1  0  0  0  0
 25 30  1  0  0  0  0
 26 48  1  0  0  0  0
 26 49  1  0  0  0  0
 26 50  1  0  0  0  0
 27 29  2  0  0  0  0
 27 51  1  0  0  0  0
 28 29  1  0  0  0  0
 28 52  1  0  0  0  0
 29 31  1  0  0  0  0
 30 53  1  0  0  0  0
 30 54  1  0  0  0  0
 30 55  1  0  0  0  0
 31 56  1  0  0  0  0
 31 57  1  0  0  0  0
 31 58  1  0  0  0  0
M  END
> <PUBCHEM_COMPOUND_CID>
24133871

> <PUBCHEM_COMPOUND_CANONICALIZED>
1

> <PUBCHEM_CACTVS_COMPLEXITY>
659

> <PUBCHEM_CACTVS_HBOND_ACCEPTOR>
10

> <PUBCHEM_CACTVS_HBOND_DONOR>
1

> <PUBCHEM_CACTVS_ROTATABLE_BOND>
11

> <PUBCHEM_CACTVS_SUBSKEYS>
AAADceB6PAAAAAAAAAAAAAAAAAAAAAAAAAA0QAAAAAAAAAABAAAAHgAQAAAADBzhmAYyyILABACIAiTSSACCAAAhAgAIiIAIZIkLICLAkZGPIAhnkADayAfw8A4OCAAAAAAAAAAQAAAAAAAAAAAAAAAAAA==

> <PUBCHEM_IUPAC_OPENEYE_NAME>
[(2S,3S,4R,5S,6S)-3,4,5-triacetoxy-6-(4-methylanilino)tetrahydropyran-2-yl]methyl acetate

> <PUBCHEM_IUPAC_CAS_NAME>
acetic acid [(2S,3S,4R,5S,6S)-3,4,5-triacetyloxy-6-(4-methylanilino)-2-oxanyl]methyl ester

> <PUBCHEM_IUPAC_NAME>
[(2S,3S,4R,5S,6S)-3,4,5-triacetyloxy-6-(4-methylanilino)oxan-2-yl]methyl acetate

> <PUBCHEM_IUPAC_SYSTEMATIC_NAME>
[(2S,3S,4R,5S,6S)-3,4,5-triacetyloxy-6-[(4-methylphenyl)amino]oxan-2-yl]methyl ethanoate

> <PUBCHEM_IUPAC_TRADITIONAL_NAME>
acetic acid [(2S,3S,4R,5S,6S)-3,4,5-triacetoxy-6-(p-toluidino)tetrahydropyran-2-yl]methyl ester

> <PUBCHEM_IUPAC_INCHI>
InChI=1S/C21H27NO9/c1-11-6-8-16(9-7-11)22-21-20(30-15(5)26)19(29-14(4)25)18(28-13(3)24)17(31-21)10-27-12(2)23/h6-9,17-22H,10H2,1-5H3/t17-,18-,19+,20-,21-/m0/s1

> <PUBCHEM_IUPAC_INCHIKEY>
HGVRVFJGYNQTRD-WHZJULEDSA-N

> <PUBCHEM_XLOGP3>
2.8

> <PUBCHEM_EXACT_MASS>
437.168581

> <PUBCHEM_MOLECULAR_FORMULA>
C21H27NO9

> <PUBCHEM_MOLECULAR_WEIGHT>
437.44038

> <PUBCHEM_OPENEYE_CAN_SMILES>
CC1=CC=C(C=C1)NC2C(C(C(C(O2)COC(=O)C)OC(=O)C)OC(=O)C)OC(=O)C

> <PUBCHEM_OPENEYE_ISO_SMILES>
CC1=CC=C(C=C1)N[C@@H]2[C@H]([C@@H]([C@H]([C@@H](O2)COC(=O)C)OC(=O)C)OC(=O)C)OC(=O)C

> <PUBCHEM_CACTVS_TPSA>
127

> <PUBCHEM_MONOISOTOPIC_WEIGHT>
437.168581

> <PUBCHEM_TOTAL_CHARGE>
0

> <PUBCHEM_HEAVY_ATOM_COUNT>
31

> <PUBCHEM_ATOM_DEF_STEREO_COUNT>
5

> <PUBCHEM_ATOM_UDEF_STEREO_COUNT>
0

> <PUBCHEM_BOND_DEF_STEREO_COUNT>
0

> <PUBCHEM_BOND_UDEF_STEREO_COUNT>
0

> <PUBCHEM_ISOTOPIC_ATOM_COUNT>
0

> <PUBCHEM_COMPONENT_COUNT>
1

> <PUBCHEM_CACTVS_TAUTO_COUNT>
1

> <PUBCHEM_COORDINATE_TYPE>
1
5
255

> <PUBCHEM_BONDANNOTATIONS>
15  10  5
14  16  5
17  21  8
17  22  8
11  2  5
21  27  8
22  28  8
27  29  8
28  29  8
12  3  6
13  4  6

$$$$
24137723
  -OEChem-11301217352D

 42 44  0     0  0  0  0  0  0999 V2000
    4.7320   -1.5173    0.0000 O   0  0  0  0  0  0  0  0  0  0  0  0
    5.5981   -0.0173    0.0000 N   0  0  0  0  0  0  0  0  0  0  0  0
    3.3660    0.8487    0.0000 C   0  0  0  0  0  0  0  0  0  0  0  0
    2.8660   -0.0173    0.0000 C   0  0  0  0  0  0  0  0  0  0  0  0
    3.8660   -0.0173    0.0000 C   0  0  0  0  0  0  0  0  0  0  0  0
    2.8660   -1.0173    0.0000 C   0  0  0  0  0  0  0  0  0  0  0  0
    2.0000    0.4827    0.0000 C   0  0  0  0  0  0  0  0  0  0  0  0
    2.5000    1.3487    0.0000 C   0  0  0  0  0  0  0  0  0  0  0  0
    4.2320    1.3487    0.0000 C   0  0  0  0  0  0  0  0  0  0  0  0
    4.7320   -0.5173    0.0000 C   0  0  0  0  0  0  0  0  0  0  0  0
    5.5981    0.9827    0.0000 C   0  0  0  0  0  0  0  0  0  0  0  0
    6.4641   -0.5173    0.0000 C   0  0  0  0  0  0  0  0  0  0  0  0
    6.4641    1.4827    0.0000 C   0  0  0  0  0  0  0  0  0  0  0  0
    7.3301   -0.0173    0.0000 C   0  0  0  0  0  0  0  0  0  0  0  0
    7.3301    0.9827    0.0000 C   0  0  0  0  0  0  0  0  0  0  0  0
    8.2241   -0.5520    0.0000 C   0  0  0  0  0  0  0  0  0  0  0  0
    8.2241    1.5173    0.0000 C   0  0  0  0  0  0  0  0  0  0  0  0
    9.1301   -0.0381    0.0000 C   0  0  0  0  0  0  0  0  0  0  0  0
    9.1301    1.0035    0.0000 C   0  0  0  0  0  0  0  0  0  0  0  0
    3.7056   -0.6162    0.0000 H   0  0  0  0  0  0  0  0  0  0  0  0
    4.5420    0.8118    0.0000 H   0  0  0  0  0  0  0  0  0  0  0  0
    4.7690    1.6587    0.0000 H   0  0  0  0  0  0  0  0  0  0  0  0
    3.9220    1.8856    0.0000 H   0  0  0  0  0  0  0  0  0  0  0  0
    2.8100    1.8856    0.0000 H   0  0  0  0  0  0  0  0  0  0  0  0
    1.9631    1.6587    0.0000 H   0  0  0  0  0  0  0  0  0  0  0  0
    2.1900    0.8118    0.0000 H   0  0  0  0  0  0  0  0  0  0  0  0
    2.3100    1.0196    0.0000 H   0  0  0  0  0  0  0  0  0  0  0  0
    1.4631    0.7927    0.0000 H   0  0  0  0  0  0  0  0  0  0  0  0
    1.6900   -0.0543    0.0000 H   0  0  0  0  0  0  0  0  0  0  0  0
    2.2460   -1.0173    0.0000 H   0  0  0  0  0  0  0  0  0  0  0  0
    2.8660   -1.6373    0.0000 H   0  0  0  0  0  0  0  0  0  0  0  0
    3.4860   -1.0173    0.0000 H   0  0  0  0  0  0  0  0  0  0  0  0
    5.3860    1.5653    0.0000 H   0  0  0  0  0  0  0  0  0  0  0  0
    4.9875    0.8750    0.0000 H   0  0  0  0  0  0  0  0  0  0  0  0
    6.0656   -0.9923    0.0000 H   0  0  0  0  0  0  0  0  0  0  0  0
    6.8626   -0.9923    0.0000 H   0  0  0  0  0  0  0  0  0  0  0  0
    6.8626    1.9576    0.0000 H   0  0  0  0  0  0  0  0  0  0  0  0
    6.0656    1.9576    0.0000 H   0  0  0  0  0  0  0  0  0  0  0  0
    8.2169   -1.1720    0.0000 H   0  0  0  0  0  0  0  0  0  0  0  0
    8.2169    2.1373    0.0000 H   0  0  0  0  0  0  0  0  0  0  0  0
    9.6659   -0.3502    0.0000 H   0  0  0  0  0  0  0  0  0  0  0  0
    9.6659    1.3156    0.0000 H   0  0  0  0  0  0  0  0  0  0  0  0
  1 10  2  0  0  0  0
  2 10  1  0  0  0  0
  2 11  1  0  0  0  0
  2 12  1  0  0  0  0
  3  4  1  0  0  0  0
  3  5  1  0  0  0  0
  3  8  1  0  0  0  0
  3  9  1  0  0  0  0
  4  5  1  0  0  0  0
  4  6  1  0  0  0  0
  4  7  1  0  0  0  0
  5 10  1  0  0  0  0
  5 20  1  0  0  0  0
  6 30  1  0  0  0  0
  6 31  1  0  0  0  0
  6 32  1  0  0  0  0
  7 27  1  0  0  0  0
  7 28  1  0  0  0  0
  7 29  1  0  0  0  0
  8 24  1  0  0  0  0
  8 25  1  0  0  0  0
  8 26  1  0  0  0  0
  9 21  1  0  0  0  0
  9 22  1  0  0  0  0
  9 23  1  0  0  0  0
 11 13  1  0  0  0  0
 11 33  1  0  0  0  0
 11 34  1  0  0  0  0
 12 14  1  0  0  0  0
 12 35  1  0  0  0  0
 12 36  1  0  0  0  0
 13 15  1  0  0  0  0
 13 37  1  0  0  0  0
 13 38  1  0  0  0  0
 14 15  1  0  0  0  0
 14 16  2  0  0  0  0
 15 17  2  0  0  0  0
 16 18  1  0  0  0  0
 16 39  1  0  0  0  0
 17 19  1  0  0  0  0
 17 40  1  0  0  0  0
 18 19  2  0  0  0  0
 18 41  1  0  0  0  0
 19 42  1  0  0  0  0
M  END
> <PUBCHEM_COMPOUND_CID>
24137723

> <PUBCHEM_COMPOUND_CANONICALIZED>
1

> <PUBCHEM_CACTVS_COMPLEXITY>
371

> <PUBCHEM_CACTVS_HBOND_ACCEPTOR>
1

> <PUBCHEM_CACTVS_HBOND_DONOR>
0

> <PUBCHEM_CACTVS_ROTATABLE_BOND>
1

> <PUBCHEM_CACTVS_SUBSKEYS>
AAADceB6IAAAAAAAAAAAAAAAGAAAAAAAAAA8QAAAAAAAAACxAAAAHgAAAAAADwDBmAQyAIMAAACIAiFSEACCAAAgAAAIiAEIBIgIIDKAkRGEIAhghgCIiAcYgIAPgAAAAAAQAAAAAAAAACAAAAAAAAAAAA==

> <PUBCHEM_IUPAC_OPENEYE_NAME>
3,4-dihydro-1H-isoquinolin-2-yl-(2,2,3,3-tetramethylcyclopropyl)methanone

> <PUBCHEM_IUPAC_CAS_NAME>
3,4-dihydro-1H-isoquinolin-2-yl-(2,2,3,3-tetramethylcyclopropyl)methanone

> <PUBCHEM_IUPAC_NAME>
3,4-dihydro-1H-isoquinolin-2-yl-(2,2,3,3-tetramethylcyclopropyl)methanone

> <PUBCHEM_IUPAC_SYSTEMATIC_NAME>
3,4-dihydro-1H-isoquinolin-2-yl-(2,2,3,3-tetramethylcyclopropyl)methanone

> <PUBCHEM_IUPAC_TRADITIONAL_NAME>
3,4-dihydro-1H-isoquinolin-2-yl-(2,2,3,3-tetramethylcyclopropyl)methanone

> <PUBCHEM_IUPAC_INCHI>
InChI=1S/C17H23NO/c1-16(2)14(17(16,3)4)15(19)18-10-9-12-7-5-6-8-13(12)11-18/h5-8,14H,9-11H2,1-4H3

> <PUBCHEM_IUPAC_INCHIKEY>
JUDCOTSVCAFEGX-UHFFFAOYSA-N

> <PUBCHEM_XLOGP3>
3.4

> <PUBCHEM_EXACT_MASS>
257.177964

> <PUBCHEM_MOLECULAR_FORMULA>
C17H23NO

> <PUBCHEM_MOLECULAR_WEIGHT>
257.37062

> <PUBCHEM_OPENEYE_CAN_SMILES>
CC1(C(C1(C)C)C(=O)N2CCC3=CC=CC=C3C2)C

> <PUBCHEM_OPENEYE_ISO_SMILES>
CC1(C(C1(C)C)C(=O)N2CCC3=CC=CC=C3C2)C

> <PUBCHEM_CACTVS_TPSA>
20.3

> <PUBCHEM_MONOISOTOPIC_WEIGHT>
257.177964

> <PUBCHEM_TOTAL_CHARGE>
0

> <PUBCHEM_HEAVY_ATOM_COUNT>
19

> <PUBCHEM_ATOM_DEF_STEREO_COUNT>
0

> <PUBCHEM_ATOM_UDEF_STEREO_COUNT>
0

> <PUBCHEM_BOND_DEF_STEREO_COUNT>
0

> <PUBCHEM_BOND_UDEF_STEREO_COUNT>
0

> <PUBCHEM_ISOTOPIC_ATOM_COUNT>
0

> <PUBCHEM_COMPONENT_COUNT>
1

> <PUBCHEM_CACTVS_TAUTO_COUNT>
1

> <PUBCHEM_COORDINATE_TYPE>
1
5
255

> <PUBCHEM_BONDANNOTATIONS>
14  15  8
14  16  8
15  17  8
16  18  8
17  19  8
18  19  8

$$$$
24148945
  -OEChem-11301217362D

 56 57  0     0  0  0  0  0  0999 V2000
    8.9282    0.6900    0.0000 O   0  0  0  0  0  0  0  0  0  0  0  0
    9.7942    3.1900    0.0000 O   0  0  0  0  0  0  0  0  0  0  0  0
    2.0000   -4.3100    0.0000 O   0  5  0  0  0  0  0  0  0  0  0  0
    2.8660   -2.8100    0.0000 O   0  0  0  0  0  0  0  0  0  0  0  0
    8.9282   -4.3100    0.0000 N   0  0  0  0  0  0  0  0  0  0  0  0
    7.1962   -1.3100    0.0000 N   0  0  0  0  0  0  0  0  0  0  0  0
    8.0622   -2.8100    0.0000 N   0  0  0  0  0  0  0  0  0  0  0  0
    7.1962   -4.3100    0.0000 N   0  0  0  0  0  0  0  0  0  0  0  0
    6.3301   -2.8100    0.0000 N   0  0  0  0  0  0  0  0  0  0  0  0
    2.8660   -3.8100    0.0000 N   0  3  0  0  0  0  0  0  0  0  0  0
   11.5263    5.1900    0.0000 N   0  0  0  0  0  0  0  0  0  0  0  0
    9.7942   -3.8100    0.0000 C   0  0  0  0  0  0  0  0  0  0  0  0
    8.0622   -0.8100    0.0000 C   0  0  0  0  0  0  0  0  0  0  0  0
    8.0622    0.1900    0.0000 C   0  0  0  0  0  0  0  0  0  0  0  0
    8.0622   -3.8100    0.0000 C   0  0  0  0  0  0  0  0  0  0  0  0
   10.6603   -4.3100    0.0000 C   0  0  0  0  0  0  0  0  0  0  0  0
    9.7942   -2.8100    0.0000 C   0  0  0  0  0  0  0  0  0  0  0  0
    7.1962   -2.3100    0.0000 C   0  0  0  0  0  0  0  0  0  0  0  0
    6.3301   -3.8100    0.0000 C   0  0  0  0  0  0  0  0  0  0  0  0
    8.9282    1.6900    0.0000 C   0  0  0  0  0  0  0  0  0  0  0  0
    5.4641   -4.3100    0.0000 C   0  0  0  0  0  0  0  0  0  0  0  0
    9.7942    2.1900    0.0000 C   0  0  0  0  0  0  0  0  0  0  0  0
    4.5981   -3.8100    0.0000 C   0  0  0  0  0  0  0  0  0  0  0  0
    5.4641   -5.3100    0.0000 C   0  0  0  0  0  0  0  0  0  0  0  0
   10.6603    3.6900    0.0000 C   0  0  0  0  0  0  0  0  0  0  0  0
    3.7320   -4.3100    0.0000 C   0  0  0  0  0  0  0  0  0  0  0  0
    4.5981   -5.8100    0.0000 C   0  0  0  0  0  0  0  0  0  0  0  0
    3.7320   -5.3100    0.0000 C   0  0  0  0  0  0  0  0  0  0  0  0
   10.6603    4.6900    0.0000 C   0  0  0  0  0  0  0  0  0  0  0  0
    9.2573   -3.5000    0.0000 H   0  0  0  0  0  0  0  0  0  0  0  0
    8.9282   -4.9300    0.0000 H   0  0  0  0  0  0  0  0  0  0  0  0
    8.2742   -1.3926    0.0000 H   0  0  0  0  0  0  0  0  0  0  0  0
    8.6728   -0.7023    0.0000 H   0  0  0  0  0  0  0  0  0  0  0  0
    7.8501    0.7726    0.0000 H   0  0  0  0  0  0  0  0  0  0  0  0
    7.4516    0.0823    0.0000 H   0  0  0  0  0  0  0  0  0  0  0  0
   10.4142   -2.8100    0.0000 H   0  0  0  0  0  0  0  0  0  0  0  0
   10.3503   -4.8469    0.0000 H   0  0  0  0  0  0  0  0  0  0  0  0
   11.1972   -4.6200    0.0000 H   0  0  0  0  0  0  0  0  0  0  0  0
   10.9703   -3.7731    0.0000 H   0  0  0  0  0  0  0  0  0  0  0  0
    9.7942   -2.1900    0.0000 H   0  0  0  0  0  0  0  0  0  0  0  0
    9.1742   -2.8100    0.0000 H   0  0  0  0  0  0  0  0  0  0  0  0
    6.6592   -1.0000    0.0000 H   0  0  0  0  0  0  0  0  0  0  0  0
    8.7162    2.2726    0.0000 H   0  0  0  0  0  0  0  0  0  0  0  0
    8.3176    1.5823    0.0000 H   0  0  0  0  0  0  0  0  0  0  0  0
   10.0063    1.6074    0.0000 H   0  0  0  0  0  0  0  0  0  0  0  0
   10.4048    2.2977    0.0000 H   0  0  0  0  0  0  0  0  0  0  0  0
    4.5981   -3.1900    0.0000 H   0  0  0  0  0  0  0  0  0  0  0  0
    6.0010   -5.6200    0.0000 H   0  0  0  0  0  0  0  0  0  0  0  0
   10.8723    3.1074    0.0000 H   0  0  0  0  0  0  0  0  0  0  0  0
   11.2708    3.7977    0.0000 H   0  0  0  0  0  0  0  0  0  0  0  0
    4.5981   -6.4300    0.0000 H   0  0  0  0  0  0  0  0  0  0  0  0
   10.4482    5.2726    0.0000 H   0  0  0  0  0  0  0  0  0  0  0  0
   10.0497    4.5823    0.0000 H   0  0  0  0  0  0  0  0  0  0  0  0
    3.1951   -5.6200    0.0000 H   0  0  0  0  0  0  0  0  0  0  0  0
   11.5263    5.8100    0.0000 H   0  0  0  0  0  0  0  0  0  0  0  0
   12.0632    4.8800    0.0000 H   0  0  0  0  0  0  0  0  0  0  0  0
  1 14  1  0  0  0  0
  1 20  1  0  0  0  0
  2 22  1  0  0  0  0
  2 25  1  0  0  0  0
  3 10  1  0  0  0  0
  4 10  2  0  0  0  0
  5 12  1  0  0  0  0
  5 15  1  0  0  0  0
  5 31  1  0  0  0  0
  6 13  1  0  0  0  0
  6 18  1  0  0  0  0
  6 42  1  0  0  0  0
  7 15  1  0  0  0  0
  7 18  2  0  0  0  0
  8 15  2  0  0  0  0
  8 19  1  0  0  0  0
  9 18  1  0  0  0  0
  9 19  2  0  0  0  0
 10 26  1  0  0  0  0
 11 29  1  0  0  0  0
 11 55  1  0  0  0  0
 11 56  1  0  0  0  0
 12 16  1  0  0  0  0
 12 17  1  0  0  0  0
 12 30  1  0  0  0  0
 13 14  1  0  0  0  0
 13 32  1  0  0  0  0
 13 33  1  0  0  0  0
 14 34  1  0  0  0  0
 14 35  1  0  0  0  0
 16 37  1  0  0  0  0
 16 38  1  0  0  0  0
 16 39  1  0  0  0  0
 17 36  1  0  0  0  0
 17 40  1  0  0  0  0
 17 41  1  0  0  0  0
 19 21  1  0  0  0  0
 20 22  1  0  0  0  0
 20 43  1  0  0  0  0
 20 44  1  0  0  0  0
 21 23  2  0  0  0  0
 21 24  1  0  0  0  0
 22 45  1  0  0  0  0
 22 46  1  0  0  0  0
 23 26  1  0  0  0  0
 23 47  1  0  0  0  0
 24 27  2  0  0  0  0
 24 48  1  0  0  0  0
 25 29  1  0  0  0  0
 25 49  1  0  0  0  0
 25 50  1  0  0  0  0
 26 28  2  0  0  0  0
 27 28  1  0  0  0  0
 27 51  1  0  0  0  0
 28 54  1  0  0  0  0
 29 52  1  0  0  0  0
 29 53  1  0  0  0  0
M  CHG  2   3  -1  10   1
M  END
> <PUBCHEM_COMPOUND_CID>
24148945

> <PUBCHEM_COMPOUND_CANONICALIZED>
1

> <PUBCHEM_CACTVS_COMPLEXITY>
466

> <PUBCHEM_CACTVS_HBOND_ACCEPTOR>
10

> <PUBCHEM_CACTVS_HBOND_DONOR>
3

> <PUBCHEM_CACTVS_ROTATABLE_BOND>
12

> <PUBCHEM_CACTVS_SUBSKEYS>
AAADceB7uAAAAAAAAAAAAAAAAAAAAAAAAAA8QAAAAAAAAAABwAAAHgAUAAAADCjhmwYz0IbYVAChAiZiZwCCgAkgAqApiKAoZJqLKKKAmZGHIAhokAIayAcQgAAOAAAAQAAAAAAAAACAAAAAAAAAAAAAAA==

> <PUBCHEM_IUPAC_OPENEYE_NAME>
N4-[2-[2-(2-aminoethoxy)ethoxy]ethyl]-N2-isopropyl-6-(3-nitrophenyl)-1,3,5-triazine-2,4-diamine

> <PUBCHEM_IUPAC_CAS_NAME>
N4-[2-[2-(2-aminoethoxy)ethoxy]ethyl]-6-(3-nitrophenyl)-N2-propan-2-yl-1,3,5-triazine-2,4-diamine

> <PUBCHEM_IUPAC_NAME>
4-N-[2-[2-(2-aminoethoxy)ethoxy]ethyl]-6-(3-nitrophenyl)-2-N-propan-2-yl-1,3,5-triazine-2,4-diamine

> <PUBCHEM_IUPAC_SYSTEMATIC_NAME>
N4-[2-[2-(2-azanylethoxy)ethoxy]ethyl]-6-(3-nitrophenyl)-N2-propan-2-yl-1,3,5-triazine-2,4-diamine

> <PUBCHEM_IUPAC_TRADITIONAL_NAME>
2-[2-(2-aminoethoxy)ethoxy]ethyl-[4-(isopropylamino)-6-(3-nitrophenyl)-s-triazin-2-yl]amine

> <PUBCHEM_IUPAC_INCHI>
InChI=1S/C18H27N7O4/c1-13(2)21-18-23-16(14-4-3-5-15(12-14)25(26)27)22-17(24-18)20-7-9-29-11-10-28-8-6-19/h3-5,12-13H,6-11,19H2,1-2H3,(H2,20,21,22,23,24)

> <PUBCHEM_IUPAC_INCHIKEY>
VONPZMJCBWHQEX-UHFFFAOYSA-N

> <PUBCHEM_XLOGP3>
2.5

> <PUBCHEM_EXACT_MASS>
405.212452

> <PUBCHEM_MOLECULAR_FORMULA>
C18H27N7O4

> <PUBCHEM_MOLECULAR_WEIGHT>
405.45148

> <PUBCHEM_OPENEYE_CAN_SMILES>
CC(C)NC1=NC(=NC(=N1)NCCOCCOCCN)C2=CC(=CC=C2)[N+](=O)[O-]

> <PUBCHEM_OPENEYE_ISO_SMILES>
CC(C)NC1=NC(=NC(=N1)NCCOCCOCCN)C2=CC(=CC=C2)[N+](=O)[O-]

> <PUBCHEM_CACTVS_TPSA>
153

> <PUBCHEM_MONOISOTOPIC_WEIGHT>
405.212452

> <PUBCHEM_TOTAL_CHARGE>
0

> <PUBCHEM_HEAVY_ATOM_COUNT>
29

> <PUBCHEM_ATOM_DEF_STEREO_COUNT>
0

> <PUBCHEM_ATOM_UDEF_STEREO_COUNT>
0

> <PUBCHEM_BOND_DEF_STEREO_COUNT>
0

> <PUBCHEM_BOND_UDEF_STEREO_COUNT>
0

> <PUBCHEM_ISOTOPIC_ATOM_COUNT>
0

> <PUBCHEM_COMPONENT_COUNT>
1

> <PUBCHEM_CACTVS_TAUTO_COUNT>
9

> <PUBCHEM_COORDINATE_TYPE>
1
5
255

> <PUBCHEM_BONDANNOTATIONS>
21  23  8
21  24  8
23  26  8
24  27  8
26  28  8
27  28  8
7  15  8
7  18  8
8  15  8
8  19  8
9  18  8
9  19  8

$$$$
