63278232
  -OEChem-11301218222D

 37 39  0     1  0  0  0  0  0999 V2000
    5.9674    0.3935    0.0000 N   0  0  0  0  0  0  0  0  0  0  0  0
    4.6783   -2.3727    0.0000 N   0  0  0  0  0  0  0  0  0  0  0  0
    6.2781    1.3440    0.0000 C   0  0  3  0  0  0  0  0  0  0  0  0
    7.2297    1.6514    0.0000 C   0  0  3  0  0  0  0  0  0  0  0  0
    5.6917    2.1540    0.0000 C   0  0  0  0  0  0  0  0  0  0  0  0
    7.2314    2.6514    0.0000 C   0  0  0  0  0  0  0  0  0  0  0  0
    6.2809    2.9620    0.0000 C   0  0  0  0  0  0  0  0  0  0  0  0
    8.0377    1.0622    0.0000 C   0  0  0  0  0  0  0  0  0  0  0  0
    4.9889    0.1873    0.0000 C   0  0  0  0  0  0  0  0  0  0  0  0
    4.6783   -0.7633    0.0000 C   0  0  0  0  0  0  0  0  0  0  0  0
    3.7320   -1.0680    0.0000 C   0  0  0  0  0  0  0  0  0  0  0  0
    5.2619   -1.5680    0.0000 C   0  0  0  0  0  0  0  0  0  0  0  0
    3.7320   -2.0680    0.0000 C   0  0  0  0  0  0  0  0  0  0  0  0
    2.8660   -0.5680    0.0000 C   0  0  0  0  0  0  0  0  0  0  0  0
    2.8660   -2.5680    0.0000 C   0  0  0  0  0  0  0  0  0  0  0  0
    2.0000   -1.0680    0.0000 C   0  0  0  0  0  0  0  0  0  0  0  0
    2.0000   -2.0680    0.0000 C   0  0  0  0  0  0  0  0  0  0  0  0
    5.6656    1.2481    0.0000 H   0  0  0  0  0  0  0  0  0  0  0  0
    7.7826    1.9319    0.0000 H   0  0  0  0  0  0  0  0  0  0  0  0
    5.2317    2.5697    0.0000 H   0  0  0  0  0  0  0  0  0  0  0  0
    5.2302    1.7400    0.0000 H   0  0  0  0  0  0  0  0  0  0  0  0
    7.8479    2.5855    0.0000 H   0  0  0  0  0  0  0  0  0  0  0  0
    7.3614    3.2576    0.0000 H   0  0  0  0  0  0  0  0  0  0  0  0
    6.5341    3.5280    0.0000 H   0  0  0  0  0  0  0  0  0  0  0  0
    5.7445    3.2730    0.0000 H   0  0  0  0  0  0  0  0  0  0  0  0
    6.3815   -0.0680    0.0000 H   0  0  0  0  0  0  0  0  0  0  0  0
    7.6724    0.5612    0.0000 H   0  0  0  0  0  0  0  0  0  0  0  0
    8.5386    0.6969    0.0000 H   0  0  0  0  0  0  0  0  0  0  0  0
    8.4030    1.5632    0.0000 H   0  0  0  0  0  0  0  0  0  0  0  0
    4.9684    0.8069    0.0000 H   0  0  0  0  0  0  0  0  0  0  0  0
    4.3751    0.2746    0.0000 H   0  0  0  0  0  0  0  0  0  0  0  0
    5.8819   -1.5680    0.0000 H   0  0  0  0  0  0  0  0  0  0  0  0
    4.8709   -2.9620    0.0000 H   0  0  0  0  0  0  0  0  0  0  0  0
    2.8660    0.0520    0.0000 H   0  0  0  0  0  0  0  0  0  0  0  0
    2.8660   -3.1880    0.0000 H   0  0  0  0  0  0  0  0  0  0  0  0
    1.4631   -0.7580    0.0000 H   0  0  0  0  0  0  0  0  0  0  0  0
    1.4631   -2.3780    0.0000 H   0  0  0  0  0  0  0  0  0  0  0  0
  1  3  1  0  0  0  0
  1  9  1  0  0  0  0
  1 26  1  0  0  0  0
  2 12  1  0  0  0  0
  2 13  1  0  0  0  0
  2 33  1  0  0  0  0
  3  4  1  0  0  0  0
  3  5  1  0  0  0  0
  3 18  1  0  0  0  0
  4  6  1  0  0  0  0
  4  8  1  0  0  0  0
  4 19  1  0  0  0  0
  5  7  1  0  0  0  0
  5 20  1  0  0  0  0
  5 21  1  0  0  0  0
  6  7  1  0  0  0  0
  6 22  1  0  0  0  0
  6 23  1  0  0  0  0
  7 24  1  0  0  0  0
  7 25  1  0  0  0  0
  8 27  1  0  0  0  0
  8 28  1  0  0  0  0
  8 29  1  0  0  0  0
  9 10  1  0  0  0  0
  9 30  1  0  0  0  0
  9 31  1  0  0  0  0
 10 11  1  0  0  0  0
 10 12  2  0  0  0  0
 11 13  1  0  0  0  0
 11 14  2  0  0  0  0
 12 32  1  0  0  0  0
 13 15  2  0  0  0  0
 14 16  1  0  0  0  0
 14 34  1  0  0  0  0
 15 17  1  0  0  0  0
 15 35  1  0  0  0  0
 16 17  2  0  0  0  0
 16 36  1  0  0  0  0
 17 37  1  0  0  0  0
M  END
> <PUBCHEM_COMPOUND_CID>
63278232

> <PUBCHEM_COMPOUND_CANONICALIZED>
1

> <PUBCHEM_CACTVS_COMPLEXITY>
253

> <PUBCHEM_CACTVS_HBOND_ACCEPTOR>
1

> <PUBCHEM_CACTVS_HBOND_DONOR>
2

> <PUBCHEM_CACTVS_ROTATABLE_BOND>
3

> <PUBCHEM_CACTVS_SUBSKEYS>
AAADceBzAAAAAAAAAAAAAAAAAAAAAeIAAAAwAAAAAAAAAFgB8AAAHAAQAAAADSjBHgQ+wPLJkACgAzRnRACCgCAxAiAI2aA4ZJgIIOLA0ZGEIAhgkADIyAcQgMAOgAAAAAACAAAAAAAAAAQAAAAAAQAAAA==

> <PUBCHEM_IUPAC_OPENEYE_NAME>
N-(1H-indol-3-ylmethyl)-2-methyl-cyclopentanamine

> <PUBCHEM_IUPAC_CAS_NAME>
N-(1H-indol-3-ylmethyl)-2-methyl-1-cyclopentanamine

> <PUBCHEM_IUPAC_NAME>
N-(1H-indol-3-ylmethyl)-2-methylcyclopentan-1-amine

> <PUBCHEM_IUPAC_SYSTEMATIC_NAME>
N-(1H-indol-3-ylmethyl)-2-methyl-cyclopentan-1-amine

> <PUBCHEM_IUPAC_TRADITIONAL_NAME>
1H-indol-3-ylmethyl-(2-methylcyclopentyl)amine

> <PUBCHEM_IUPAC_INCHI>
InChI=1S/C15H20N2/c1-11-5-4-8-14(11)16-9-12-10-17-15-7-3-2-6-13(12)15/h2-3,6-7,10-11,14,16-17H,4-5,8-9H2,1H3

> <PUBCHEM_IUPAC_INCHIKEY>
WFVXOKZWVFZMBH-UHFFFAOYSA-N

> <PUBCHEM_XLOGP3>
3

> <PUBCHEM_EXACT_MASS>
228.162649

> <PUBCHEM_MOLECULAR_FORMULA>
C15H20N2

> <PUBCHEM_MOLECULAR_WEIGHT>
228.3327

> <PUBCHEM_OPENEYE_CAN_SMILES>
CC1CCCC1NCC2=CNC3=CC=CC=C32

> <PUBCHEM_OPENEYE_ISO_SMILES>
CC1CCCC1NCC2=CNC3=CC=CC=C32

> <PUBCHEM_CACTVS_TPSA>
27.8

> <PUBCHEM_MONOISOTOPIC_WEIGHT>
228.162649

> <PUBCHEM_TOTAL_CHARGE>
0

> <PUBCHEM_HEAVY_ATOM_COUNT>
17

> <PUBCHEM_ATOM_DEF_STEREO_COUNT>
0

> <PUBCHEM_ATOM_UDEF_STEREO_COUNT>
2

> <PUBCHEM_BOND_DEF_STEREO_COUNT>
0

> <PUBCHEM_BOND_UDEF_STEREO_COUNT>
0

> <PUBCHEM_ISOTOPIC_ATOM_COUNT>
0

> <PUBCHEM_COMPONENT_COUNT>
1

> <PUBCHEM_CACTVS_TAUTO_COUNT>
1

> <PUBCHEM_COORDINATE_TYPE>
1
5
255

> <PUBCHEM_BONDANNOTATIONS>
3  1  3
10  11  8
10  12  8
11  13  8
11  14  8
13  15  8
14  16  8
15  17  8
16  17  8
2  12  8
2  13  8
4  8  3

$$$$
63279597
  -OEChem-11301218222D

 36 38  0     1  0  0  0  0  0999 V2000
    4.3211    0.9316    0.0000 O   0  0  0  0  0  0  0  0  0  0  0  0
    5.9674    0.3935    0.0000 N   0  0  0  0  0  0  0  0  0  0  0  0
    4.6783   -2.3727    0.0000 N   0  0  0  0  0  0  0  0  0  0  0  0
    7.2297    1.6514    0.0000 C   0  0  3  0  0  0  0  0  0  0  0  0
    6.2781    1.3440    0.0000 C   0  0  3  0  0  0  0  0  0  0  0  0
    7.2314    2.6514    0.0000 C   0  0  0  0  0  0  0  0  0  0  0  0
    5.6917    2.1540    0.0000 C   0  0  0  0  0  0  0  0  0  0  0  0
    6.2809    2.9620    0.0000 C   0  0  0  0  0  0  0  0  0  0  0  0
    8.0377    1.0622    0.0000 C   0  0  0  0  0  0  0  0  0  0  0  0
    4.9889    0.1873    0.0000 C   0  0  0  0  0  0  0  0  0  0  0  0
    4.6783   -0.7633    0.0000 C   0  0  0  0  0  0  0  0  0  0  0  0
    3.7320   -1.0680    0.0000 C   0  0  0  0  0  0  0  0  0  0  0  0
    3.7320   -2.0680    0.0000 C   0  0  0  0  0  0  0  0  0  0  0  0
    5.2619   -1.5680    0.0000 C   0  0  0  0  0  0  0  0  0  0  0  0
    2.8660   -0.5680    0.0000 C   0  0  0  0  0  0  0  0  0  0  0  0
    2.8660   -2.5680    0.0000 C   0  0  0  0  0  0  0  0  0  0  0  0
    2.0000   -1.0680    0.0000 C   0  0  0  0  0  0  0  0  0  0  0  0
    2.0000   -2.0680    0.0000 C   0  0  0  0  0  0  0  0  0  0  0  0
    7.7826    1.9319    0.0000 H   0  0  0  0  0  0  0  0  0  0  0  0
    5.6656    1.2481    0.0000 H   0  0  0  0  0  0  0  0  0  0  0  0
    7.8479    2.5855    0.0000 H   0  0  0  0  0  0  0  0  0  0  0  0
    7.3614    3.2576    0.0000 H   0  0  0  0  0  0  0  0  0  0  0  0
    5.2317    2.5697    0.0000 H   0  0  0  0  0  0  0  0  0  0  0  0
    5.2302    1.7400    0.0000 H   0  0  0  0  0  0  0  0  0  0  0  0
    6.5341    3.5280    0.0000 H   0  0  0  0  0  0  0  0  0  0  0  0
    5.7445    3.2730    0.0000 H   0  0  0  0  0  0  0  0  0  0  0  0
    7.6724    0.5612    0.0000 H   0  0  0  0  0  0  0  0  0  0  0  0
    8.5386    0.6969    0.0000 H   0  0  0  0  0  0  0  0  0  0  0  0
    8.4030    1.5632    0.0000 H   0  0  0  0  0  0  0  0  0  0  0  0
    6.3815   -0.0680    0.0000 H   0  0  0  0  0  0  0  0  0  0  0  0
    5.8819   -1.5680    0.0000 H   0  0  0  0  0  0  0  0  0  0  0  0
    4.8709   -2.9620    0.0000 H   0  0  0  0  0  0  0  0  0  0  0  0
    2.8660    0.0520    0.0000 H   0  0  0  0  0  0  0  0  0  0  0  0
    2.8660   -3.1880    0.0000 H   0  0  0  0  0  0  0  0  0  0  0  0
    1.4631   -0.7580    0.0000 H   0  0  0  0  0  0  0  0  0  0  0  0
    1.4631   -2.3780    0.0000 H   0  0  0  0  0  0  0  0  0  0  0  0
  1 10  2  0  0  0  0
  2  5  1  0  0  0  0
  2 10  1  0  0  0  0
  2 30  1  0  0  0  0
  3 13  1  0  0  0  0
  3 14  1  0  0  0  0
  3 32  1  0  0  0  0
  4  5  1  0  0  0  0
  4  6  1  0  0  0  0
  4  9  1  0  0  0  0
  4 19  1  0  0  0  0
  5  7  1  0  0  0  0
  5 20  1  0  0  0  0
  6  8  1  0  0  0  0
  6 21  1  0  0  0  0
  6 22  1  0  0  0  0
  7  8  1  0  0  0  0
  7 23  1  0  0  0  0
  7 24  1  0  0  0  0
  8 25  1  0  0  0  0
  8 26  1  0  0  0  0
  9 27  1  0  0  0  0
  9 28  1  0  0  0  0
  9 29  1  0  0  0  0
 10 11  1  0  0  0  0
 11 12  1  0  0  0  0
 11 14  2  0  0  0  0
 12 13  1  0  0  0  0
 12 15  2  0  0  0  0
 13 16  2  0  0  0  0
 14 31  1  0  0  0  0
 15 17  1  0  0  0  0
 15 33  1  0  0  0  0
 16 18  1  0  0  0  0
 16 34  1  0  0  0  0
 17 18  2  0  0  0  0
 17 35  1  0  0  0  0
 18 36  1  0  0  0  0
M  END
> <PUBCHEM_COMPOUND_CID>
63279597

> <PUBCHEM_COMPOUND_CANONICALIZED>
1

> <PUBCHEM_CACTVS_COMPLEXITY>
318

> <PUBCHEM_CACTVS_HBOND_ACCEPTOR>
1

> <PUBCHEM_CACTVS_HBOND_DONOR>
2

> <PUBCHEM_CACTVS_ROTATABLE_BOND>
2

> <PUBCHEM_CACTVS_SUBSKEYS>
AAADceBzIAAAAAAAAAAAAAAAAAAAAeIAAAAwAAAAAAAAAFgB8AAAHgAQAAAADSjBngQ+wPLJkACoAzV3VACCgCA1AiAI2aE4ZNgIIPrA1ZGEIYhglgDIyccciMCOgAAAAAACAAAAAAAAAAQAAAAAAQAAAA==

> <PUBCHEM_IUPAC_OPENEYE_NAME>
N-(2-methylcyclopentyl)-1H-indole-3-carboxamide

> <PUBCHEM_IUPAC_CAS_NAME>
N-(2-methylcyclopentyl)-1H-indole-3-carboxamide

> <PUBCHEM_IUPAC_NAME>
N-(2-methylcyclopentyl)-1H-indole-3-carboxamide

> <PUBCHEM_IUPAC_SYSTEMATIC_NAME>
N-(2-methylcyclopentyl)-1H-indole-3-carboxamide

> <PUBCHEM_IUPAC_TRADITIONAL_NAME>
N-(2-methylcyclopentyl)-1H-indole-3-carboxamide

> <PUBCHEM_IUPAC_INCHI>
InChI=1S/C15H18N2O/c1-10-5-4-8-13(10)17-15(18)12-9-16-14-7-3-2-6-11(12)14/h2-3,6-7,9-10,13,16H,4-5,8H2,1H3,(H,17,18)

> <PUBCHEM_IUPAC_INCHIKEY>
XRZJWAJTJUTJMJ-UHFFFAOYSA-N

> <PUBCHEM_XLOGP3>
3.4

> <PUBCHEM_EXACT_MASS>
242.141913

> <PUBCHEM_MOLECULAR_FORMULA>
C15H18N2O

> <PUBCHEM_MOLECULAR_WEIGHT>
242.31622

> <PUBCHEM_OPENEYE_CAN_SMILES>
CC1CCCC1NC(=O)C2=CNC3=CC=CC=C32

> <PUBCHEM_OPENEYE_ISO_SMILES>
CC1CCCC1NC(=O)C2=CNC3=CC=CC=C32

> <PUBCHEM_CACTVS_TPSA>
44.9

> <PUBCHEM_MONOISOTOPIC_WEIGHT>
242.141913

> <PUBCHEM_TOTAL_CHARGE>
0

> <PUBCHEM_HEAVY_ATOM_COUNT>
18

> <PUBCHEM_ATOM_DEF_STEREO_COUNT>
0

> <PUBCHEM_ATOM_UDEF_STEREO_COUNT>
2

> <PUBCHEM_BOND_DEF_STEREO_COUNT>
0

> <PUBCHEM_BOND_UDEF_STEREO_COUNT>
0

> <PUBCHEM_ISOTOPIC_ATOM_COUNT>
0

> <PUBCHEM_COMPONENT_COUNT>
1

> <PUBCHEM_CACTVS_TAUTO_COUNT>
5

> <PUBCHEM_COORDINATE_TYPE>
1
5
255

> <PUBCHEM_BONDANNOTATIONS>
11  12  8
11  14  8
12  13  8
12  15  8
13  16  8
15  17  8
16  18  8
17  18  8
5  2  3
3  13  8
3  14  8
4  9  3

$$$$
63279598
  -OEChem-11301218222D

 39 41  0     1  0  0  0  0  0999 V2000
    6.6353   -0.1013    0.0000 O   0  0  0  0  0  0  0  0  0  0  0  0
    6.2781    1.5935    0.0000 N   0  0  0  0  0  0  0  0  0  0  0  0
    4.6783   -2.1232    0.0000 N   0  0  0  0  0  0  0  0  0  0  0  0
    7.9986    1.1293    0.0000 C   0  0  3  0  0  0  0  0  0  0  0  0
    7.2566    1.7997    0.0000 C   0  0  3  0  0  0  0  0  0  0  0  0
    8.8655    1.6278    0.0000 C   0  0  0  0  0  0  0  0  0  0  0  0
    7.6649    2.7125    0.0000 C   0  0  0  0  0  0  0  0  0  0  0  0
    8.6593    2.6063    0.0000 C   0  0  0  0  0  0  0  0  0  0  0  0
    7.8923    0.1350    0.0000 C   0  0  0  0  0  0  0  0  0  0  0  0
    5.9674    0.6430    0.0000 C   0  0  0  0  0  0  0  0  0  0  0  0
    4.9889    0.4368    0.0000 C   0  0  0  0  0  0  0  0  0  0  0  0
    4.6783   -0.5138    0.0000 C   0  0  0  0  0  0  0  0  0  0  0  0
    3.7320   -0.8185    0.0000 C   0  0  0  0  0  0  0  0  0  0  0  0
    3.7320   -1.8185    0.0000 C   0  0  0  0  0  0  0  0  0  0  0  0
    5.2619   -1.3185    0.0000 C   0  0  0  0  0  0  0  0  0  0  0  0
    2.8660   -0.3185    0.0000 C   0  0  0  0  0  0  0  0  0  0  0  0
    2.8660   -2.3185    0.0000 C   0  0  0  0  0  0  0  0  0  0  0  0
    2.0000   -0.8185    0.0000 C   0  0  0  0  0  0  0  0  0  0  0  0
    2.0000   -1.8185    0.0000 C   0  0  0  0  0  0  0  0  0  0  0  0
    8.5180    0.7907    0.0000 H   0  0  0  0  0  0  0  0  0  0  0  0
    6.8673    2.2822    0.0000 H   0  0  0  0  0  0  0  0  0  0  0  0
    9.1167    1.0610    0.0000 H   0  0  0  0  0  0  0  0  0  0  0  0
    9.4555    1.8184    0.0000 H   0  0  0  0  0  0  0  0  0  0  0  0
    7.7949    3.3188    0.0000 H   0  0  0  0  0  0  0  0  0  0  0  0
    7.0756    2.9052    0.0000 H   0  0  0  0  0  0  0  0  0  0  0  0
    9.2760    2.6700    0.0000 H   0  0  0  0  0  0  0  0  0  0  0  0
    8.6603    3.2263    0.0000 H   0  0  0  0  0  0  0  0  0  0  0  0
    7.2758    0.2008    0.0000 H   0  0  0  0  0  0  0  0  0  0  0  0
    7.8265   -0.4815    0.0000 H   0  0  0  0  0  0  0  0  0  0  0  0
    8.5088    0.0691    0.0000 H   0  0  0  0  0  0  0  0  0  0  0  0
    5.8640    2.0550    0.0000 H   0  0  0  0  0  0  0  0  0  0  0  0
    4.9684    1.0564    0.0000 H   0  0  0  0  0  0  0  0  0  0  0  0
    4.3751    0.5241    0.0000 H   0  0  0  0  0  0  0  0  0  0  0  0
    5.8819   -1.3185    0.0000 H   0  0  0  0  0  0  0  0  0  0  0  0
    4.8709   -2.7125    0.0000 H   0  0  0  0  0  0  0  0  0  0  0  0
    2.8660    0.3015    0.0000 H   0  0  0  0  0  0  0  0  0  0  0  0
    2.8660   -2.9385    0.0000 H   0  0  0  0  0  0  0  0  0  0  0  0
    1.4631   -0.5085    0.0000 H   0  0  0  0  0  0  0  0  0  0  0  0
    1.4631   -2.1285    0.0000 H   0  0  0  0  0  0  0  0  0  0  0  0
  1 10  2  0  0  0  0
  2  5  1  0  0  0  0
  2 10  1  0  0  0  0
  2 31  1  0  0  0  0
  3 14  1  0  0  0  0
  3 15  1  0  0  0  0
  3 35  1  0  0  0  0
  4  5  1  0  0  0  0
  4  6  1  0  0  0  0
  4  9  1  0  0  0  0
  4 20  1  0  0  0  0
  5  7  1  0  0  0  0
  5 21  1  0  0  0  0
  6  8  1  0  0  0  0
  6 22  1  0  0  0  0
  6 23  1  0  0  0  0
  7  8  1  0  0  0  0
  7 24  1  0  0  0  0
  7 25  1  0  0  0  0
  8 26  1  0  0  0  0
  8 27  1  0  0  0  0
  9 28  1  0  0  0  0
  9 29  1  0  0  0  0
  9 30  1  0  0  0  0
 10 11  1  0  0  0  0
 11 12  1  0  0  0  0
 11 32  1  0  0  0  0
 11 33  1  0  0  0  0
 12 13  1  0  0  0  0
 12 15  2  0  0  0  0
 13 14  1  0  0  0  0
 13 16  2  0  0  0  0
 14 17  2  0  0  0  0
 15 34  1  0  0  0  0
 16 18  1  0  0  0  0
 16 36  1  0  0  0  0
 17 19  1  0  0  0  0
 17 37  1  0  0  0  0
 18 19  2  0  0  0  0
 18 38  1  0  0  0  0
 19 39  1  0  0  0  0
M  END
> <PUBCHEM_COMPOUND_CID>
63279598

> <PUBCHEM_COMPOUND_CANONICALIZED>
1

> <PUBCHEM_CACTVS_COMPLEXITY>
331

> <PUBCHEM_CACTVS_HBOND_ACCEPTOR>
1

> <PUBCHEM_CACTVS_HBOND_DONOR>
2

> <PUBCHEM_CACTVS_ROTATABLE_BOND>
3

> <PUBCHEM_CACTVS_SUBSKEYS>
AAADceB7IAAAAAAAAAAAAAAAAAAAAeIAAAAwAAAAAAAAAFgB8AAAHgAQAAAADSjBngQ+wPLJkACoAzV3VACCgCAxAiAI2aE4ZJgIIPLAlZGEIAhglgDIyAccicCegAAAAAACAAAAAAAAAAQAAAAAAQAAAA==

> <PUBCHEM_IUPAC_OPENEYE_NAME>
2-(1H-indol-3-yl)-N-(2-methylcyclopentyl)acetamide

> <PUBCHEM_IUPAC_CAS_NAME>
2-(1H-indol-3-yl)-N-(2-methylcyclopentyl)acetamide

> <PUBCHEM_IUPAC_NAME>
2-(1H-indol-3-yl)-N-(2-methylcyclopentyl)acetamide

> <PUBCHEM_IUPAC_SYSTEMATIC_NAME>
2-(1H-indol-3-yl)-N-(2-methylcyclopentyl)ethanamide

> <PUBCHEM_IUPAC_TRADITIONAL_NAME>
2-(1H-indol-3-yl)-N-(2-methylcyclopentyl)acetamide

> <PUBCHEM_IUPAC_INCHI>
InChI=1S/C16H20N2O/c1-11-5-4-8-14(11)18-16(19)9-12-10-17-15-7-3-2-6-13(12)15/h2-3,6-7,10-11,14,17H,4-5,8-9H2,1H3,(H,18,19)

> <PUBCHEM_IUPAC_INCHIKEY>
KTTTUAYRRFFIEE-UHFFFAOYSA-N

> <PUBCHEM_XLOGP3>
2.9

> <PUBCHEM_EXACT_MASS>
256.157563

> <PUBCHEM_MOLECULAR_FORMULA>
C16H20N2O

> <PUBCHEM_MOLECULAR_WEIGHT>
256.3428

> <PUBCHEM_OPENEYE_CAN_SMILES>
CC1CCCC1NC(=O)CC2=CNC3=CC=CC=C32

> <PUBCHEM_OPENEYE_ISO_SMILES>
CC1CCCC1NC(=O)CC2=CNC3=CC=CC=C32

> <PUBCHEM_CACTVS_TPSA>
44.9

> <PUBCHEM_MONOISOTOPIC_WEIGHT>
256.157563

> <PUBCHEM_TOTAL_CHARGE>
0

> <PUBCHEM_HEAVY_ATOM_COUNT>
19

> <PUBCHEM_ATOM_DEF_STEREO_COUNT>
0

> <PUBCHEM_ATOM_UDEF_STEREO_COUNT>
2

> <PUBCHEM_BOND_DEF_STEREO_COUNT>
0

> <PUBCHEM_BOND_UDEF_STEREO_COUNT>
0

> <PUBCHEM_ISOTOPIC_ATOM_COUNT>
0

> <PUBCHEM_COMPONENT_COUNT>
1

> <PUBCHEM_CACTVS_TAUTO_COUNT>
2

> <PUBCHEM_COORDINATE_TYPE>
1
5
255

> <PUBCHEM_BONDANNOTATIONS>
12  13  8
12  15  8
13  14  8
13  16  8
14  17  8
16  18  8
17  19  8
18  19  8
5  2  3
3  14  8
3  15  8
4  9  3

$$$$
63279599
  -OEChem-11301218222D

 42 44  0     1  0  0  0  0  0999 V2000
    5.6103    1.5099    0.0000 O   0  0  0  0  0  0  0  0  0  0  0  0
    7.2566    0.9719    0.0000 N   0  0  0  0  0  0  0  0  0  0  0  0
    4.6783   -2.9511    0.0000 N   0  0  0  0  0  0  0  0  0  0  0  0
    8.5189    2.2298    0.0000 C   0  0  3  0  0  0  0  0  0  0  0  0
    7.5673    1.9224    0.0000 C   0  0  3  0  0  0  0  0  0  0  0  0
    8.5206    3.2298    0.0000 C   0  0  0  0  0  0  0  0  0  0  0  0
    6.9809    2.7324    0.0000 C   0  0  0  0  0  0  0  0  0  0  0  0
    7.5701    3.5404    0.0000 C   0  0  0  0  0  0  0  0  0  0  0  0
    9.3269    1.6406    0.0000 C   0  0  0  0  0  0  0  0  0  0  0  0
    6.2781    0.7656    0.0000 C   0  0  0  0  0  0  0  0  0  0  0  0
    5.9674   -0.1849    0.0000 C   0  0  0  0  0  0  0  0  0  0  0  0
    4.9889   -0.3911    0.0000 C   0  0  0  0  0  0  0  0  0  0  0  0
    4.6783   -1.3416    0.0000 C   0  0  0  0  0  0  0  0  0  0  0  0
    3.7320   -1.6464    0.0000 C   0  0  0  0  0  0  0  0  0  0  0  0
    3.7320   -2.6464    0.0000 C   0  0  0  0  0  0  0  0  0  0  0  0
    5.2619   -2.1464    0.0000 C   0  0  0  0  0  0  0  0  0  0  0  0
    2.8660   -1.1464    0.0000 C   0  0  0  0  0  0  0  0  0  0  0  0
    2.8660   -3.1464    0.0000 C   0  0  0  0  0  0  0  0  0  0  0  0
    2.0000   -1.6464    0.0000 C   0  0  0  0  0  0  0  0  0  0  0  0
    2.0000   -2.6464    0.0000 C   0  0  0  0  0  0  0  0  0  0  0  0
    8.4208    1.6176    0.0000 H   0  0  0  0  0  0  0  0  0  0  0  0
    6.9547    1.8264    0.0000 H   0  0  0  0  0  0  0  0  0  0  0  0
    9.1371    3.1639    0.0000 H   0  0  0  0  0  0  0  0  0  0  0  0
    8.6505    3.8360    0.0000 H   0  0  0  0  0  0  0  0  0  0  0  0
    6.5208    3.1481    0.0000 H   0  0  0  0  0  0  0  0  0  0  0  0
    6.5194    2.3184    0.0000 H   0  0  0  0  0  0  0  0  0  0  0  0
    7.8232    4.1064    0.0000 H   0  0  0  0  0  0  0  0  0  0  0  0
    7.0337    3.8513    0.0000 H   0  0  0  0  0  0  0  0  0  0  0  0
    8.9616    1.1396    0.0000 H   0  0  0  0  0  0  0  0  0  0  0  0
    9.8278    1.2753    0.0000 H   0  0  0  0  0  0  0  0  0  0  0  0
    9.6922    2.1415    0.0000 H   0  0  0  0  0  0  0  0  0  0  0  0
    7.6707    0.5104    0.0000 H   0  0  0  0  0  0  0  0  0  0  0  0
    5.9880   -0.8045    0.0000 H   0  0  0  0  0  0  0  0  0  0  0  0
    6.5812   -0.2722    0.0000 H   0  0  0  0  0  0  0  0  0  0  0  0
    4.9684    0.2286    0.0000 H   0  0  0  0  0  0  0  0  0  0  0  0
    4.3751   -0.3038    0.0000 H   0  0  0  0  0  0  0  0  0  0  0  0
    5.8819   -2.1464    0.0000 H   0  0  0  0  0  0  0  0  0  0  0  0
    4.8709   -3.5404    0.0000 H   0  0  0  0  0  0  0  0  0  0  0  0
    2.8660   -0.5264    0.0000 H   0  0  0  0  0  0  0  0  0  0  0  0
    2.8660   -3.7664    0.0000 H   0  0  0  0  0  0  0  0  0  0  0  0
    1.4631   -1.3364    0.0000 H   0  0  0  0  0  0  0  0  0  0  0  0
    1.4631   -2.9564    0.0000 H   0  0  0  0  0  0  0  0  0  0  0  0
  1 10  2  0  0  0  0
  2  5  1  0  0  0  0
  2 10  1  0  0  0  0
  2 32  1  0  0  0  0
  3 15  1  0  0  0  0
  3 16  1  0  0  0  0
  3 38  1  0  0  0  0
  4  5  1  0  0  0  0
  4  6  1  0  0  0  0
  4  9  1  0  0  0  0
  4 21  1  0  0  0  0
  5  7  1  0  0  0  0
  5 22  1  0  0  0  0
  6  8  1  0  0  0  0
  6 23  1  0  0  0  0
  6 24  1  0  0  0  0
  7  8  1  0  0  0  0
  7 25  1  0  0  0  0
  7 26  1  0  0  0  0
  8 27  1  0  0  0  0
  8 28  1  0  0  0  0
  9 29  1  0  0  0  0
  9 30  1  0  0  0  0
  9 31  1  0  0  0  0
 10 11  1  0  0  0  0
 11 12  1  0  0  0  0
 11 33  1  0  0  0  0
 11 34  1  0  0  0  0
 12 13  1  0  0  0  0
 12 35  1  0  0  0  0
 12 36  1  0  0  0  0
 13 14  1  0  0  0  0
 13 16  2  0  0  0  0
 14 15  1  0  0  0  0
 14 17  2  0  0  0  0
 15 18  2  0  0  0  0
 16 37  1  0  0  0  0
 17 19  1  0  0  0  0
 17 39  1  0  0  0  0
 18 20  1  0  0  0  0
 18 40  1  0  0  0  0
 19 20  2  0  0  0  0
 19 41  1  0  0  0  0
 20 42  1  0  0  0  0
M  END
> <PUBCHEM_COMPOUND_CID>
63279599

> <PUBCHEM_COMPOUND_CANONICALIZED>
1

> <PUBCHEM_CACTVS_COMPLEXITY>
344

> <PUBCHEM_CACTVS_HBOND_ACCEPTOR>
1

> <PUBCHEM_CACTVS_HBOND_DONOR>
2

> <PUBCHEM_CACTVS_ROTATABLE_BOND>
4

> <PUBCHEM_CACTVS_SUBSKEYS>
AAADceB7IAAAAAAAAAAAAAAAAAAAAeIAAAAwAAAAAAAAAFgB8AAAHgAQAAAADSjBngQ+wPLJkACoAzV3VACCgCAxAiAI2aE4ZJgIIPLAkZGEIAhglgDIyAcYicCOgAAAAAACAAAAAAAAAAQAAAAAAQAAAA==

> <PUBCHEM_IUPAC_OPENEYE_NAME>
3-(1H-indol-3-yl)-N-(2-methylcyclopentyl)propanamide

> <PUBCHEM_IUPAC_CAS_NAME>
3-(1H-indol-3-yl)-N-(2-methylcyclopentyl)propanamide

> <PUBCHEM_IUPAC_NAME>
3-(1H-indol-3-yl)-N-(2-methylcyclopentyl)propanamide

> <PUBCHEM_IUPAC_SYSTEMATIC_NAME>
3-(1H-indol-3-yl)-N-(2-methylcyclopentyl)propanamide

> <PUBCHEM_IUPAC_TRADITIONAL_NAME>
3-(1H-indol-3-yl)-N-(2-methylcyclopentyl)propionamide

> <PUBCHEM_IUPAC_INCHI>
InChI=1S/C17H22N2O/c1-12-5-4-8-15(12)19-17(20)10-9-13-11-18-16-7-3-2-6-14(13)16/h2-3,6-7,11-12,15,18H,4-5,8-10H2,1H3,(H,19,20)

> <PUBCHEM_IUPAC_INCHIKEY>
PEUPXDIEWNXTKV-UHFFFAOYSA-N

> <PUBCHEM_XLOGP3>
3.2

> <PUBCHEM_EXACT_MASS>
270.173213

> <PUBCHEM_MOLECULAR_FORMULA>
C17H22N2O

> <PUBCHEM_MOLECULAR_WEIGHT>
270.36938

> <PUBCHEM_OPENEYE_CAN_SMILES>
CC1CCCC1NC(=O)CCC2=CNC3=CC=CC=C32

> <PUBCHEM_OPENEYE_ISO_SMILES>
CC1CCCC1NC(=O)CCC2=CNC3=CC=CC=C32

> <PUBCHEM_CACTVS_TPSA>
44.9

> <PUBCHEM_MONOISOTOPIC_WEIGHT>
270.173213

> <PUBCHEM_TOTAL_CHARGE>
0

> <PUBCHEM_HEAVY_ATOM_COUNT>
20

> <PUBCHEM_ATOM_DEF_STEREO_COUNT>
0

> <PUBCHEM_ATOM_UDEF_STEREO_COUNT>
2

> <PUBCHEM_BOND_DEF_STEREO_COUNT>
0

> <PUBCHEM_BOND_UDEF_STEREO_COUNT>
0

> <PUBCHEM_ISOTOPIC_ATOM_COUNT>
0

> <PUBCHEM_COMPONENT_COUNT>
1

> <PUBCHEM_CACTVS_TAUTO_COUNT>
2

> <PUBCHEM_COORDINATE_TYPE>
1
5
255

> <PUBCHEM_BONDANNOTATIONS>
13  14  8
13  16  8
14  15  8
14  17  8
15  18  8
17  19  8
18  20  8
19  20  8
5  2  3
3  15  8
3  16  8
4  9  3

$$$$
63279683
  -OEChem-11301218222D

 45 47  0     1  0  0  0  0  0999 V2000
    7.9244    0.0436    0.0000 O   0  0  0  0  0  0  0  0  0  0  0  0
    7.5673    1.7384    0.0000 N   0  0  0  0  0  0  0  0  0  0  0  0
    4.6783   -3.1350    0.0000 N   0  0  0  0  0  0  0  0  0  0  0  0
    8.9541    2.8575    0.0000 C   0  0  3  0  0  0  0  0  0  0  0  0
    8.5458    1.9446    0.0000 C   0  0  3  0  0  0  0  0  0  0  0  0
    9.9484    2.7512    0.0000 C   0  0  0  0  0  0  0  0  0  0  0  0
    9.2878    1.2742    0.0000 C   0  0  0  0  0  0  0  0  0  0  0  0
   10.1547    1.7727    0.0000 C   0  0  0  0  0  0  0  0  0  0  0  0
    8.4556    3.7244    0.0000 C   0  0  0  0  0  0  0  0  0  0  0  0
    7.2566    0.7879    0.0000 C   0  0  0  0  0  0  0  0  0  0  0  0
    6.2781    0.5817    0.0000 C   0  0  0  0  0  0  0  0  0  0  0  0
    5.9674   -0.3688    0.0000 C   0  0  0  0  0  0  0  0  0  0  0  0
    4.9889   -0.5751    0.0000 C   0  0  0  0  0  0  0  0  0  0  0  0
    4.6783   -1.5256    0.0000 C   0  0  0  0  0  0  0  0  0  0  0  0
    3.7320   -1.8303    0.0000 C   0  0  0  0  0  0  0  0  0  0  0  0
    3.7320   -2.8303    0.0000 C   0  0  0  0  0  0  0  0  0  0  0  0
    5.2619   -2.3303    0.0000 C   0  0  0  0  0  0  0  0  0  0  0  0
    2.8660   -1.3303    0.0000 C   0  0  0  0  0  0  0  0  0  0  0  0
    2.8660   -3.3303    0.0000 C   0  0  0  0  0  0  0  0  0  0  0  0
    2.0000   -1.8303    0.0000 C   0  0  0  0  0  0  0  0  0  0  0  0
    2.0000   -2.8303    0.0000 C   0  0  0  0  0  0  0  0  0  0  0  0
    9.2927    3.3769    0.0000 H   0  0  0  0  0  0  0  0  0  0  0  0
    8.1564    2.4271    0.0000 H   0  0  0  0  0  0  0  0  0  0  0  0
   10.5651    2.8150    0.0000 H   0  0  0  0  0  0  0  0  0  0  0  0
    9.9495    3.3712    0.0000 H   0  0  0  0  0  0  0  0  0  0  0  0
    8.8263    0.8602    0.0000 H   0  0  0  0  0  0  0  0  0  0  0  0
    9.6513    0.7720    0.0000 H   0  0  0  0  0  0  0  0  0  0  0  0
   10.4058    1.2059    0.0000 H   0  0  0  0  0  0  0  0  0  0  0  0
   10.7446    1.9633    0.0000 H   0  0  0  0  0  0  0  0  0  0  0  0
    8.9931    4.0334    0.0000 H   0  0  0  0  0  0  0  0  0  0  0  0
    8.1465    4.2618    0.0000 H   0  0  0  0  0  0  0  0  0  0  0  0
    7.9181    3.4153    0.0000 H   0  0  0  0  0  0  0  0  0  0  0  0
    7.1532    2.1999    0.0000 H   0  0  0  0  0  0  0  0  0  0  0  0
    6.2575    1.2013    0.0000 H   0  0  0  0  0  0  0  0  0  0  0  0
    5.6643    0.6690    0.0000 H   0  0  0  0  0  0  0  0  0  0  0  0
    5.9880   -0.9885    0.0000 H   0  0  0  0  0  0  0  0  0  0  0  0
    6.5812   -0.4562    0.0000 H   0  0  0  0  0  0  0  0  0  0  0  0
    4.9684    0.0446    0.0000 H   0  0  0  0  0  0  0  0  0  0  0  0
    4.3751   -0.4877    0.0000 H   0  0  0  0  0  0  0  0  0  0  0  0
    5.8819   -2.3303    0.0000 H   0  0  0  0  0  0  0  0  0  0  0  0
    4.8709   -3.7244    0.0000 H   0  0  0  0  0  0  0  0  0  0  0  0
    2.8660   -0.7103    0.0000 H   0  0  0  0  0  0  0  0  0  0  0  0
    2.8660   -3.9503    0.0000 H   0  0  0  0  0  0  0  0  0  0  0  0
    1.4631   -1.5203    0.0000 H   0  0  0  0  0  0  0  0  0  0  0  0
    1.4631   -3.1403    0.0000 H   0  0  0  0  0  0  0  0  0  0  0  0
  1 10  2  0  0  0  0
  2  5  1  0  0  0  0
  2 10  1  0  0  0  0
  2 33  1  0  0  0  0
  3 16  1  0  0  0  0
  3 17  1  0  0  0  0
  3 41  1  0  0  0  0
  4  5  1  0  0  0  0
  4  6  1  0  0  0  0
  4  9  1  0  0  0  0
  4 22  1  0  0  0  0
  5  7  1  0  0  0  0
  5 23  1  0  0  0  0
  6  8  1  0  0  0  0
  6 24  1  0  0  0  0
  6 25  1  0  0  0  0
  7  8  1  0  0  0  0
  7 26  1  0  0  0  0
  7 27  1  0  0  0  0
  8 28  1  0  0  0  0
  8 29  1  0  0  0  0
  9 30  1  0  0  0  0
  9 31  1  0  0  0  0
  9 32  1  0  0  0  0
 10 11  1  0  0  0  0
 11 12  1  0  0  0  0
 11 34  1  0  0  0  0
 11 35  1  0  0  0  0
 12 13  1  0  0  0  0
 12 36  1  0  0  0  0
 12 37  1  0  0  0  0
 13 14  1  0  0  0  0
 13 38  1  0  0  0  0
 13 39  1  0  0  0  0
 14 15  1  0  0  0  0
 14 17  2  0  0  0  0
 15 16  1  0  0  0  0
 15 18  2  0  0  0  0
 16 19  2  0  0  0  0
 17 40  1  0  0  0  0
 18 20  1  0  0  0  0
 18 42  1  0  0  0  0
 19 21  1  0  0  0  0
 19 43  1  0  0  0  0
 20 21  2  0  0  0  0
 20 44  1  0  0  0  0
 21 45  1  0  0  0  0
M  END
> <PUBCHEM_COMPOUND_CID>
63279683

> <PUBCHEM_COMPOUND_CANONICALIZED>
1

> <PUBCHEM_CACTVS_COMPLEXITY>
357

> <PUBCHEM_CACTVS_HBOND_ACCEPTOR>
1

> <PUBCHEM_CACTVS_HBOND_DONOR>
2

> <PUBCHEM_CACTVS_ROTATABLE_BOND>
5

> <PUBCHEM_CACTVS_SUBSKEYS>
AAADceB7IAAAAAAAAAAAAAAAAAAAAeIAAAAwAAAAAAAAAFgB8AAAHgAQAAAADSjBngQ+wPLJkACoAzV3VACCgCAxAiAI2aE4ZJgIIPLAkZGEIAhglgDIyAcYiMCOgAAAAAACAAAAAAAAAAQAAAAAAQAAAA==

> <PUBCHEM_IUPAC_OPENEYE_NAME>
4-(1H-indol-3-yl)-N-(2-methylcyclopentyl)butanamide

> <PUBCHEM_IUPAC_CAS_NAME>
4-(1H-indol-3-yl)-N-(2-methylcyclopentyl)butanamide

> <PUBCHEM_IUPAC_NAME>
4-(1H-indol-3-yl)-N-(2-methylcyclopentyl)butanamide

> <PUBCHEM_IUPAC_SYSTEMATIC_NAME>
4-(1H-indol-3-yl)-N-(2-methylcyclopentyl)butanamide

> <PUBCHEM_IUPAC_TRADITIONAL_NAME>
4-(1H-indol-3-yl)-N-(2-methylcyclopentyl)butyramide

> <PUBCHEM_IUPAC_INCHI>
InChI=1S/C18H24N2O/c1-13-6-4-10-16(13)20-18(21)11-5-7-14-12-19-17-9-3-2-8-15(14)17/h2-3,8-9,12-13,16,19H,4-7,10-11H2,1H3,(H,20,21)

> <PUBCHEM_IUPAC_INCHIKEY>
TYPLAWPVWSKWMN-UHFFFAOYSA-N

> <PUBCHEM_XLOGP3>
3.8

> <PUBCHEM_EXACT_MASS>
284.188863

> <PUBCHEM_MOLECULAR_FORMULA>
C18H24N2O

> <PUBCHEM_MOLECULAR_WEIGHT>
284.39596

> <PUBCHEM_OPENEYE_CAN_SMILES>
CC1CCCC1NC(=O)CCCC2=CNC3=CC=CC=C32

> <PUBCHEM_OPENEYE_ISO_SMILES>
CC1CCCC1NC(=O)CCCC2=CNC3=CC=CC=C32

> <PUBCHEM_CACTVS_TPSA>
44.9

> <PUBCHEM_MONOISOTOPIC_WEIGHT>
284.188863

> <PUBCHEM_TOTAL_CHARGE>
0

> <PUBCHEM_HEAVY_ATOM_COUNT>
21

> <PUBCHEM_ATOM_DEF_STEREO_COUNT>
0

> <PUBCHEM_ATOM_UDEF_STEREO_COUNT>
2

> <PUBCHEM_BOND_DEF_STEREO_COUNT>
0

> <PUBCHEM_BOND_UDEF_STEREO_COUNT>
0

> <PUBCHEM_ISOTOPIC_ATOM_COUNT>
0

> <PUBCHEM_COMPONENT_COUNT>
1

> <PUBCHEM_CACTVS_TAUTO_COUNT>
2

> <PUBCHEM_COORDINATE_TYPE>
1
5
255

> <PUBCHEM_BONDANNOTATIONS>
14  15  8
14  17  8
15  16  8
15  18  8
16  19  8
18  20  8
19  21  8
5  2  3
20  21  8
3  16  8
3  17  8
4  9  3

$$$$
63279725
  -OEChem-11301218222D

 36 38  0     1  0  0  0  0  0999 V2000
    4.5411    0.6776    0.0000 O   0  0  0  0  0  0  0  0  0  0  0  0
    2.8090    0.6776    0.0000 N   0  0  0  0  0  0  0  0  0  0  0  0
    5.4873   -2.6271    0.0000 N   0  0  0  0  0  0  0  0  0  0  0  0
    3.6180    2.2654    0.0000 C   0  0  3  0  0  0  0  0  0  0  0  0
    2.8090    1.6776    0.0000 C   0  0  3  0  0  0  0  0  0  0  0  0
    3.3090    3.2164    0.0000 C   0  0  0  0  0  0  0  0  0  0  0  0
    2.0000    2.2654    0.0000 C   0  0  0  0  0  0  0  0  0  0  0  0
    2.3090    3.2164    0.0000 C   0  0  0  0  0  0  0  0  0  0  0  0
    4.5691    1.9564    0.0000 C   0  0  0  0  0  0  0  0  0  0  0  0
    3.6750    0.1776    0.0000 C   0  0  0  0  0  0  0  0  0  0  0  0
    3.6750   -0.8224    0.0000 C   0  0  0  0  0  0  0  0  0  0  0  0
    4.5411   -1.3224    0.0000 C   0  0  0  0  0  0  0  0  0  0  0  0
    4.5411   -2.3224    0.0000 C   0  0  0  0  0  0  0  0  0  0  0  0
    2.8090   -1.3224    0.0000 C   0  0  0  0  0  0  0  0  0  0  0  0
    5.4873   -1.0177    0.0000 C   0  0  0  0  0  0  0  0  0  0  0  0
    3.6750   -2.8224    0.0000 C   0  0  0  0  0  0  0  0  0  0  0  0
    2.8090   -2.3224    0.0000 C   0  0  0  0  0  0  0  0  0  0  0  0
    6.0709   -1.8224    0.0000 C   0  0  0  0  0  0  0  0  0  0  0  0
    3.7150    1.6530    0.0000 H   0  0  0  0  0  0  0  0  0  0  0  0
    3.3614    1.3961    0.0000 H   0  0  0  0  0  0  0  0  0  0  0  0
    3.9155    3.3454    0.0000 H   0  0  0  0  0  0  0  0  0  0  0  0
    3.2442    3.8330    0.0000 H   0  0  0  0  0  0  0  0  0  0  0  0
    1.4336    2.5176    0.0000 H   0  0  0  0  0  0  0  0  0  0  0  0
    1.6900    1.7285    0.0000 H   0  0  0  0  0  0  0  0  0  0  0  0
    2.3738    3.8330    0.0000 H   0  0  0  0  0  0  0  0  0  0  0  0
    1.7026    3.3454    0.0000 H   0  0  0  0  0  0  0  0  0  0  0  0
    4.3775    1.3667    0.0000 H   0  0  0  0  0  0  0  0  0  0  0  0
    5.1588    1.7648    0.0000 H   0  0  0  0  0  0  0  0  0  0  0  0
    4.7607    2.5460    0.0000 H   0  0  0  0  0  0  0  0  0  0  0  0
    2.2721    0.3676    0.0000 H   0  0  0  0  0  0  0  0  0  0  0  0
    2.2721   -1.0124    0.0000 H   0  0  0  0  0  0  0  0  0  0  0  0
    5.6799   -0.4283    0.0000 H   0  0  0  0  0  0  0  0  0  0  0  0
    3.6750   -3.4424    0.0000 H   0  0  0  0  0  0  0  0  0  0  0  0
    2.2721   -2.6324    0.0000 H   0  0  0  0  0  0  0  0  0  0  0  0
    5.6799   -3.2164    0.0000 H   0  0  0  0  0  0  0  0  0  0  0  0
    6.6909   -1.8224    0.0000 H   0  0  0  0  0  0  0  0  0  0  0  0
  1 10  2  0  0  0  0
  2  5  1  0  0  0  0
  2 10  1  0  0  0  0
  2 30  1  0  0  0  0
  3 13  1  0  0  0  0
  3 18  1  0  0  0  0
  3 35  1  0  0  0  0
  4  5  1  0  0  0  0
  4  6  1  0  0  0  0
  4  9  1  0  0  0  0
  4 19  1  0  0  0  0
  5  7  1  0  0  0  0
  5 20  1  0  0  0  0
  6  8  1  0  0  0  0
  6 21  1  0  0  0  0
  6 22  1  0  0  0  0
  7  8  1  0  0  0  0
  7 23  1  0  0  0  0
  7 24  1  0  0  0  0
  8 25  1  0  0  0  0
  8 26  1  0  0  0  0
  9 27  1  0  0  0  0
  9 28  1  0  0  0  0
  9 29  1  0  0  0  0
 10 11  1  0  0  0  0
 11 12  2  0  0  0  0
 11 14  1  0  0  0  0
 12 13  1  0  0  0  0
 12 15  1  0  0  0  0
 13 16  2  0  0  0  0
 14 17  2  0  0  0  0
 14 31  1  0  0  0  0
 15 18  2  0  0  0  0
 15 32  1  0  0  0  0
 16 17  1  0  0  0  0
 16 33  1  0  0  0  0
 17 34  1  0  0  0  0
 18 36  1  0  0  0  0
M  END
> <PUBCHEM_COMPOUND_CID>
63279725

> <PUBCHEM_COMPOUND_CANONICALIZED>
1

> <PUBCHEM_CACTVS_COMPLEXITY>
318

> <PUBCHEM_CACTVS_HBOND_ACCEPTOR>
1

> <PUBCHEM_CACTVS_HBOND_DONOR>
2

> <PUBCHEM_CACTVS_ROTATABLE_BOND>
2

> <PUBCHEM_CACTVS_SUBSKEYS>
AAADceBzIAAAAAAAAAAAAAAAAAAAAeIAAAAwAAAAAAAAAFgB8AAAHgAQAAAADSjBngQ+wPLJkACoAzV3VACCgCA1AiAI2aE4ZNgIIPLAlZGEIQhglgDIyYcciYCOgAAAQAASAAAAAACAACQAAAAAAQAAAA==

> <PUBCHEM_IUPAC_OPENEYE_NAME>
N-(2-methylcyclopentyl)-1H-indole-4-carboxamide

> <PUBCHEM_IUPAC_CAS_NAME>
N-(2-methylcyclopentyl)-1H-indole-4-carboxamide

> <PUBCHEM_IUPAC_NAME>
N-(2-methylcyclopentyl)-1H-indole-4-carboxamide

> <PUBCHEM_IUPAC_SYSTEMATIC_NAME>
N-(2-methylcyclopentyl)-1H-indole-4-carboxamide

> <PUBCHEM_IUPAC_TRADITIONAL_NAME>
N-(2-methylcyclopentyl)-1H-indole-4-carboxamide

> <PUBCHEM_IUPAC_INCHI>
InChI=1S/C15H18N2O/c1-10-4-2-6-13(10)17-15(18)12-5-3-7-14-11(12)8-9-16-14/h3,5,7-10,13,16H,2,4,6H2,1H3,(H,17,18)

> <PUBCHEM_IUPAC_INCHIKEY>
YWSLDEZCWJMPQW-UHFFFAOYSA-N

> <PUBCHEM_XLOGP3>
2.8

> <PUBCHEM_EXACT_MASS>
242.141913

> <PUBCHEM_MOLECULAR_FORMULA>
C15H18N2O

> <PUBCHEM_MOLECULAR_WEIGHT>
242.31622

> <PUBCHEM_OPENEYE_CAN_SMILES>
CC1CCCC1NC(=O)C2=C3C=CNC3=CC=C2

> <PUBCHEM_OPENEYE_ISO_SMILES>
CC1CCCC1NC(=O)C2=C3C=CNC3=CC=C2

> <PUBCHEM_CACTVS_TPSA>
44.9

> <PUBCHEM_MONOISOTOPIC_WEIGHT>
242.141913

> <PUBCHEM_TOTAL_CHARGE>
0

> <PUBCHEM_HEAVY_ATOM_COUNT>
18

> <PUBCHEM_ATOM_DEF_STEREO_COUNT>
0

> <PUBCHEM_ATOM_UDEF_STEREO_COUNT>
2

> <PUBCHEM_BOND_DEF_STEREO_COUNT>
0

> <PUBCHEM_BOND_UDEF_STEREO_COUNT>
0

> <PUBCHEM_ISOTOPIC_ATOM_COUNT>
0

> <PUBCHEM_COMPONENT_COUNT>
1

> <PUBCHEM_CACTVS_TAUTO_COUNT>
5

> <PUBCHEM_COORDINATE_TYPE>
1
5
255

> <PUBCHEM_BONDANNOTATIONS>
11  12  8
11  14  8
12  13  8
12  15  8
13  16  8
14  17  8
15  18  8
16  17  8
5  2  3
3  13  8
3  18  8
4  9  3

$$$$
