39730091
  -OEChem-05231305202D

 35 36  0     1  0  0  0  0  0999 V2000
    3.7320    2.5000    0.0000 O   0  0  0  0  0  0  0  0  0  0  0  0
    2.8660    1.0000    0.0000 N   0  0  0  0  0  0  0  0  0  0  0  0
    3.7320    0.5000    0.0000 C   0  0  2  0  0  0  0  0  0  0  0  0
    3.7320   -0.5000    0.0000 C   0  0  0  0  0  0  0  0  0  0  0  0
    4.5981    1.0000    0.0000 C   0  0  0  0  0  0  0  0  0  0  0  0
    2.8660   -1.0000    0.0000 C   0  0  0  0  0  0  0  0  0  0  0  0
    4.5981   -1.0000    0.0000 C   0  0  0  0  0  0  0  0  0  0  0  0
    5.4641    0.5000    0.0000 C   0  0  0  0  0  0  0  0  0  0  0  0
    4.5981    2.0000    0.0000 C   0  0  0  0  0  0  0  0  0  0  0  0
    2.8660   -2.0000    0.0000 C   0  0  0  0  0  0  0  0  0  0  0  0
    2.0000   -0.5000    0.0000 C   0  0  0  0  0  0  0  0  0  0  0  0
    4.5981   -2.0000    0.0000 C   0  0  0  0  0  0  0  0  0  0  0  0
    3.7320   -2.5000    0.0000 C   0  0  0  0  0  0  0  0  0  0  0  0
    2.8660    2.0000    0.0000 C   0  0  0  0  0  0  0  0  0  0  0  0
    6.3301    1.0000    0.0000 C   0  0  0  0  0  0  0  0  0  0  0  0
    5.4641    2.5000    0.0000 C   0  0  0  0  0  0  0  0  0  0  0  0
    6.3301    2.0000    0.0000 C   0  0  0  0  0  0  0  0  0  0  0  0
    2.0000    2.5000    0.0000 C   0  0  0  0  0  0  0  0  0  0  0  0
    3.7320    1.1200    0.0000 H   0  0  0  0  0  0  0  0  0  0  0  0
    2.3291    0.6900    0.0000 H   0  0  0  0  0  0  0  0  0  0  0  0
    5.1350   -0.6900    0.0000 H   0  0  0  0  0  0  0  0  0  0  0  0
    5.4641   -0.1200    0.0000 H   0  0  0  0  0  0  0  0  0  0  0  0
    4.0611    2.3100    0.0000 H   0  0  0  0  0  0  0  0  0  0  0  0
    2.3291   -2.3100    0.0000 H   0  0  0  0  0  0  0  0  0  0  0  0
    2.3100    0.0369    0.0000 H   0  0  0  0  0  0  0  0  0  0  0  0
    1.4631   -0.1900    0.0000 H   0  0  0  0  0  0  0  0  0  0  0  0
    1.6900   -1.0369    0.0000 H   0  0  0  0  0  0  0  0  0  0  0  0
    5.1350   -2.3100    0.0000 H   0  0  0  0  0  0  0  0  0  0  0  0
    3.7320   -3.1200    0.0000 H   0  0  0  0  0  0  0  0  0  0  0  0
    6.8671    0.6900    0.0000 H   0  0  0  0  0  0  0  0  0  0  0  0
    5.4641    3.1200    0.0000 H   0  0  0  0  0  0  0  0  0  0  0  0
    6.8671    2.3100    0.0000 H   0  0  0  0  0  0  0  0  0  0  0  0
    2.3100    3.0369    0.0000 H   0  0  0  0  0  0  0  0  0  0  0  0
    1.4631    2.8100    0.0000 H   0  0  0  0  0  0  0  0  0  0  0  0
    1.6900    1.9631    0.0000 H   0  0  0  0  0  0  0  0  0  0  0  0
  1 14  2  0  0  0  0
  3  2  1  1  0  0  0
  2 14  1  0  0  0  0
  2 20  1  0  0  0  0
  3  4  1  0  0  0  0
  3  5  1  0  0  0  0
  3 19  1  0  0  0  0
  4  6  1  0  0  0  0
  4  7  2  0  0  0  0
  5  8  2  0  0  0  0
  5  9  1  0  0  0  0
  6 10  2  0  0  0  0
  6 11  1  0  0  0  0
  7 12  1  0  0  0  0
  7 21  1  0  0  0  0
  8 15  1  0  0  0  0
  8 22  1  0  0  0  0
  9 16  2  0  0  0  0
  9 23  1  0  0  0  0
 10 13  1  0  0  0  0
 10 24  1  0  0  0  0
 11 25  1  0  0  0  0
 11 26  1  0  0  0  0
 11 27  1  0  0  0  0
 12 13  2  0  0  0  0
 12 28  1  0  0  0  0
 13 29  1  0  0  0  0
 14 18  1  0  0  0  0
 15 17  2  0  0  0  0
 15 30  1  0  0  0  0
 16 17  1  0  0  0  0
 16 31  1  0  0  0  0
 17 32  1  0  0  0  0
 18 33  1  0  0  0  0
 18 34  1  0  0  0  0
 18 35  1  0  0  0  0
M  END
> <PUBCHEM_COMPOUND_CID>
39730091

> <PUBCHEM_COMPOUND_CANONICALIZED>
1

> <PUBCHEM_CACTVS_COMPLEXITY>
270

> <PUBCHEM_CACTVS_HBOND_ACCEPTOR>
1

> <PUBCHEM_CACTVS_HBOND_DONOR>
1

> <PUBCHEM_CACTVS_ROTATABLE_BOND>
3

> <PUBCHEM_CACTVS_SUBSKEYS>
AAADceB6IAAAAAAAAAAAAAAAAAAAAAAAAAAwYAAAAAAAAAABQAAAHgAQAAAADCjBmAQyAILAAACIAiFSEACCAAAgAAAIiIAIBIgIICKAkRGEIAhglgCIiAcQgMAOgAAAAAAQAAAAAAAAACAAAAAAAAAAAA==

> <PUBCHEM_IUPAC_OPENEYE_NAME>
N-[(S)-o-tolyl(phenyl)methyl]acetamide

> <PUBCHEM_IUPAC_CAS_NAME>
N-[(S)-(2-methylphenyl)-phenylmethyl]acetamide

> <PUBCHEM_IUPAC_NAME>
N-[(S)-(2-methylphenyl)-phenylmethyl]acetamide

> <PUBCHEM_IUPAC_SYSTEMATIC_NAME>
N-[(S)-(2-methylphenyl)-phenyl-methyl]ethanamide

> <PUBCHEM_IUPAC_TRADITIONAL_NAME>
N-[(S)-o-tolyl(phenyl)methyl]acetamide

> <PUBCHEM_IUPAC_INCHI>
InChI=1S/C16H17NO/c1-12-8-6-7-11-15(12)16(17-13(2)18)14-9-4-3-5-10-14/h3-11,16H,1-2H3,(H,17,18)/t16-/m0/s1

> <PUBCHEM_IUPAC_INCHIKEY>
MTXCBBSDWXDJKB-INIZCTEOSA-N

> <PUBCHEM_XLOGP3>
3.1

> <PUBCHEM_EXACT_MASS>
239.131014

> <PUBCHEM_MOLECULAR_FORMULA>
C16H17NO

> <PUBCHEM_MOLECULAR_WEIGHT>
239.31228

> <PUBCHEM_OPENEYE_CAN_SMILES>
CC1=CC=CC=C1C(C2=CC=CC=C2)NC(=O)C

> <PUBCHEM_OPENEYE_ISO_SMILES>
CC1=CC=CC=C1[C@H](C2=CC=CC=C2)NC(=O)C

> <PUBCHEM_CACTVS_TPSA>
29.1

> <PUBCHEM_MONOISOTOPIC_WEIGHT>
239.131014

> <PUBCHEM_TOTAL_CHARGE>
0

> <PUBCHEM_HEAVY_ATOM_COUNT>
18

> <PUBCHEM_ATOM_DEF_STEREO_COUNT>
1

> <PUBCHEM_ATOM_UDEF_STEREO_COUNT>
0

> <PUBCHEM_BOND_DEF_STEREO_COUNT>
0

> <PUBCHEM_BOND_UDEF_STEREO_COUNT>
0

> <PUBCHEM_ISOTOPIC_ATOM_COUNT>
0

> <PUBCHEM_COMPONENT_COUNT>
1

> <PUBCHEM_CACTVS_TAUTO_COUNT>
2

> <PUBCHEM_COORDINATE_TYPE>
1
5
255

> <PUBCHEM_BONDANNOTATIONS>
10  13  8
12  13  8
15  17  8
16  17  8
3  2  5
4  6  8
4  7  8
5  8  8
5  9  8
6  10  8
7  12  8
8  15  8
9  16  8

$$$$
39730093
  -OEChem-05231305202D

 35 36  0     1  0  0  0  0  0999 V2000
    3.7320    2.5000    0.0000 O   0  0  0  0  0  0  0  0  0  0  0  0
    2.8660    1.0000    0.0000 N   0  0  0  0  0  0  0  0  0  0  0  0
    3.7320    0.5000    0.0000 C   0  0  1  0  0  0  0  0  0  0  0  0
    3.7320   -0.5000    0.0000 C   0  0  0  0  0  0  0  0  0  0  0  0
    4.5981    1.0000    0.0000 C   0  0  0  0  0  0  0  0  0  0  0  0
    2.8660   -1.0000    0.0000 C   0  0  0  0  0  0  0  0  0  0  0  0
    4.5981   -1.0000    0.0000 C   0  0  0  0  0  0  0  0  0  0  0  0
    5.4641    0.5000    0.0000 C   0  0  0  0  0  0  0  0  0  0  0  0
    4.5981    2.0000    0.0000 C   0  0  0  0  0  0  0  0  0  0  0  0
    2.8660   -2.0000    0.0000 C   0  0  0  0  0  0  0  0  0  0  0  0
    2.0000   -0.5000    0.0000 C   0  0  0  0  0  0  0  0  0  0  0  0
    4.5981   -2.0000    0.0000 C   0  0  0  0  0  0  0  0  0  0  0  0
    3.7320   -2.5000    0.0000 C   0  0  0  0  0  0  0  0  0  0  0  0
    2.8660    2.0000    0.0000 C   0  0  0  0  0  0  0  0  0  0  0  0
    6.3301    1.0000    0.0000 C   0  0  0  0  0  0  0  0  0  0  0  0
    5.4641    2.5000    0.0000 C   0  0  0  0  0  0  0  0  0  0  0  0
    6.3301    2.0000    0.0000 C   0  0  0  0  0  0  0  0  0  0  0  0
    2.0000    2.5000    0.0000 C   0  0  0  0  0  0  0  0  0  0  0  0
    3.7320    1.1200    0.0000 H   0  0  0  0  0  0  0  0  0  0  0  0
    2.3291    0.6900    0.0000 H   0  0  0  0  0  0  0  0  0  0  0  0
    5.1350   -0.6900    0.0000 H   0  0  0  0  0  0  0  0  0  0  0  0
    5.4641   -0.1200    0.0000 H   0  0  0  0  0  0  0  0  0  0  0  0
    4.0611    2.3100    0.0000 H   0  0  0  0  0  0  0  0  0  0  0  0
    2.3291   -2.3100    0.0000 H   0  0  0  0  0  0  0  0  0  0  0  0
    2.3100    0.0369    0.0000 H   0  0  0  0  0  0  0  0  0  0  0  0
    1.4631   -0.1900    0.0000 H   0  0  0  0  0  0  0  0  0  0  0  0
    1.6900   -1.0369    0.0000 H   0  0  0  0  0  0  0  0  0  0  0  0
    5.1350   -2.3100    0.0000 H   0  0  0  0  0  0  0  0  0  0  0  0
    3.7320   -3.1200    0.0000 H   0  0  0  0  0  0  0  0  0  0  0  0
    6.8671    0.6900    0.0000 H   0  0  0  0  0  0  0  0  0  0  0  0
    5.4641    3.1200    0.0000 H   0  0  0  0  0  0  0  0  0  0  0  0
    6.8671    2.3100    0.0000 H   0  0  0  0  0  0  0  0  0  0  0  0
    2.3100    3.0369    0.0000 H   0  0  0  0  0  0  0  0  0  0  0  0
    1.4631    2.8100    0.0000 H   0  0  0  0  0  0  0  0  0  0  0  0
    1.6900    1.9631    0.0000 H   0  0  0  0  0  0  0  0  0  0  0  0
  1 14  2  0  0  0  0
  3  2  1  6  0  0  0
  2 14  1  0  0  0  0
  2 20  1  0  0  0  0
  3  4  1  0  0  0  0
  3  5  1  0  0  0  0
  3 19  1  0  0  0  0
  4  6  1  0  0  0  0
  4  7  2  0  0  0  0
  5  8  2  0  0  0  0
  5  9  1  0  0  0  0
  6 10  2  0  0  0  0
  6 11  1  0  0  0  0
  7 12  1  0  0  0  0
  7 21  1  0  0  0  0
  8 15  1  0  0  0  0
  8 22  1  0  0  0  0
  9 16  2  0  0  0  0
  9 23  1  0  0  0  0
 10 13  1  0  0  0  0
 10 24  1  0  0  0  0
 11 25  1  0  0  0  0
 11 26  1  0  0  0  0
 11 27  1  0  0  0  0
 12 13  2  0  0  0  0
 12 28  1  0  0  0  0
 13 29  1  0  0  0  0
 14 18  1  0  0  0  0
 15 17  2  0  0  0  0
 15 30  1  0  0  0  0
 16 17  1  0  0  0  0
 16 31  1  0  0  0  0
 17 32  1  0  0  0  0
 18 33  1  0  0  0  0
 18 34  1  0  0  0  0
 18 35  1  0  0  0  0
M  END
> <PUBCHEM_COMPOUND_CID>
39730093

> <PUBCHEM_COMPOUND_CANONICALIZED>
1

> <PUBCHEM_CACTVS_COMPLEXITY>
270

> <PUBCHEM_CACTVS_HBOND_ACCEPTOR>
1

> <PUBCHEM_CACTVS_HBOND_DONOR>
1

> <PUBCHEM_CACTVS_ROTATABLE_BOND>
3

> <PUBCHEM_CACTVS_SUBSKEYS>
AAADceB6IAAAAAAAAAAAAAAAAAAAAAAAAAAwYAAAAAAAAAABQAAAHgAQAAAADCjBmAQyAILAAACIAiFSEACCAAAgAAAIiIAIBIgIICKAkRGEIAhglgCIiAcQgMAOgAAAAAAQAAAAAAAAACAAAAAAAAAAAA==

> <PUBCHEM_IUPAC_OPENEYE_NAME>
N-[(R)-o-tolyl(phenyl)methyl]acetamide

> <PUBCHEM_IUPAC_CAS_NAME>
N-[(R)-(2-methylphenyl)-phenylmethyl]acetamide

> <PUBCHEM_IUPAC_NAME>
N-[(R)-(2-methylphenyl)-phenylmethyl]acetamide

> <PUBCHEM_IUPAC_SYSTEMATIC_NAME>
N-[(R)-(2-methylphenyl)-phenyl-methyl]ethanamide

> <PUBCHEM_IUPAC_TRADITIONAL_NAME>
N-[(R)-o-tolyl(phenyl)methyl]acetamide

> <PUBCHEM_IUPAC_INCHI>
InChI=1S/C16H17NO/c1-12-8-6-7-11-15(12)16(17-13(2)18)14-9-4-3-5-10-14/h3-11,16H,1-2H3,(H,17,18)/t16-/m1/s1

> <PUBCHEM_IUPAC_INCHIKEY>
MTXCBBSDWXDJKB-MRXNPFEDSA-N

> <PUBCHEM_XLOGP3>
3.1

> <PUBCHEM_EXACT_MASS>
239.131014

> <PUBCHEM_MOLECULAR_FORMULA>
C16H17NO

> <PUBCHEM_MOLECULAR_WEIGHT>
239.31228

> <PUBCHEM_OPENEYE_CAN_SMILES>
CC1=CC=CC=C1C(C2=CC=CC=C2)NC(=O)C

> <PUBCHEM_OPENEYE_ISO_SMILES>
CC1=CC=CC=C1[C@@H](C2=CC=CC=C2)NC(=O)C

> <PUBCHEM_CACTVS_TPSA>
29.1

> <PUBCHEM_MONOISOTOPIC_WEIGHT>
239.131014

> <PUBCHEM_TOTAL_CHARGE>
0

> <PUBCHEM_HEAVY_ATOM_COUNT>
18

> <PUBCHEM_ATOM_DEF_STEREO_COUNT>
1

> <PUBCHEM_ATOM_UDEF_STEREO_COUNT>
0

> <PUBCHEM_BOND_DEF_STEREO_COUNT>
0

> <PUBCHEM_BOND_UDEF_STEREO_COUNT>
0

> <PUBCHEM_ISOTOPIC_ATOM_COUNT>
0

> <PUBCHEM_COMPONENT_COUNT>
1

> <PUBCHEM_CACTVS_TAUTO_COUNT>
2

> <PUBCHEM_COORDINATE_TYPE>
1
5
255

> <PUBCHEM_BONDANNOTATIONS>
10  13  8
12  13  8
15  17  8
16  17  8
3  2  6
4  6  8
4  7  8
5  8  8
5  9  8
6  10  8
7  12  8
8  15  8
9  16  8

$$$$
39730320
  -OEChem-05231305202D

 20 20  0     0  0  0  0  0  0999 V2000
    2.5369    1.2500    0.0000 N   0  3  0  0  0  0  0  0  0  0  0  0
    4.2690    1.2500    0.0000 N   0  0  0  0  0  0  0  0  0  0  0  0
    3.4030   -2.2500    0.0000 N   0  0  0  0  0  0  0  0  0  0  0  0
    3.4030   -0.2500    0.0000 C   0  0  0  0  0  0  0  0  0  0  0  0
    3.4030    0.7500    0.0000 C   0  0  0  0  0  0  0  0  0  0  0  0
    2.5369   -0.7500    0.0000 C   0  0  0  0  0  0  0  0  0  0  0  0
    4.2690   -0.7500    0.0000 C   0  0  0  0  0  0  0  0  0  0  0  0
    2.5369    2.2500    0.0000 C   0  0  0  0  0  0  0  0  0  0  0  0
    2.5369   -1.7500    0.0000 C   0  0  0  0  0  0  0  0  0  0  0  0
    4.2690   -1.7500    0.0000 C   0  0  0  0  0  0  0  0  0  0  0  0
    2.0000   -0.4400    0.0000 H   0  0  0  0  0  0  0  0  0  0  0  0
    4.8059   -0.4400    0.0000 H   0  0  0  0  0  0  0  0  0  0  0  0
    2.0000    0.9400    0.0000 H   0  0  0  0  0  0  0  0  0  0  0  0
    3.1569    2.2500    0.0000 H   0  0  0  0  0  0  0  0  0  0  0  0
    2.5369    2.8700    0.0000 H   0  0  0  0  0  0  0  0  0  0  0  0
    1.9169    2.2500    0.0000 H   0  0  0  0  0  0  0  0  0  0  0  0
    2.0000   -2.0600    0.0000 H   0  0  0  0  0  0  0  0  0  0  0  0
    4.8059   -2.0600    0.0000 H   0  0  0  0  0  0  0  0  0  0  0  0
    4.2690    1.8700    0.0000 H   0  0  0  0  0  0  0  0  0  0  0  0
    4.8059    0.9400    0.0000 H   0  0  0  0  0  0  0  0  0  0  0  0
  1  5  2  0  0  0  0
  1  8  1  0  0  0  0
  1 13  1  0  0  0  0
  2  5  1  0  0  0  0
  2 19  1  0  0  0  0
  2 20  1  0  0  0  0
  3  9  2  0  0  0  0
  3 10  1  0  0  0  0
  4  5  1  0  0  0  0
  4  6  2  0  0  0  0
  4  7  1  0  0  0  0
  6  9  1  0  0  0  0
  6 11  1  0  0  0  0
  7 10  2  0  0  0  0
  7 12  1  0  0  0  0
  8 14  1  0  0  0  0
  8 15  1  0  0  0  0
  8 16  1  0  0  0  0
  9 17  1  0  0  0  0
 10 18  1  0  0  0  0
M  CHG  1   1   1
M  END
> <PUBCHEM_COMPOUND_CID>
39730320

> <PUBCHEM_COMPOUND_CANONICALIZED>
1

> <PUBCHEM_CACTVS_COMPLEXITY>
125

> <PUBCHEM_CACTVS_HBOND_ACCEPTOR>
1

> <PUBCHEM_CACTVS_HBOND_DONOR>
2

> <PUBCHEM_CACTVS_ROTATABLE_BOND>
1

> <PUBCHEM_CACTVS_SUBSKEYS>
AAADccBjAAAAAAAAAAAAAAAAAAAAAAAAAAAsAAAAAAAAAAABgAAAHAAQAAAADADBGgQ/gJLIEACgAjJnZACCgCGxAiAI2KA4ZJgIIOLAkZGEIAhggADIyAYQAAAKAAAAAAAAAAAAAAAAAAAAAAAAAAAAAA==

> <PUBCHEM_IUPAC_OPENEYE_NAME>
[amino(4-pyridyl)methylene]-methyl-ammonium

> <PUBCHEM_IUPAC_CAS_NAME>
[amino(pyridin-4-yl)methylidene]-methylammonium

> <PUBCHEM_IUPAC_NAME>
[amino(pyridin-4-yl)methylidene]-methylazanium

> <PUBCHEM_IUPAC_SYSTEMATIC_NAME>
[azanyl(pyridin-4-yl)methylidene]-methyl-azanium

> <PUBCHEM_IUPAC_TRADITIONAL_NAME>
[amino(4-pyridyl)methylene]-methyl-ammonium

> <PUBCHEM_IUPAC_INCHI>
InChI=1S/C7H9N3/c1-9-7(8)6-2-4-10-5-3-6/h2-5H,1H3,(H2,8,9)/p+1

> <PUBCHEM_IUPAC_INCHIKEY>
FHMWOUZNXNFWEF-UHFFFAOYSA-O

> <PUBCHEM_XLOGP3>
-0.1

> <PUBCHEM_EXACT_MASS>
136.087472

> <PUBCHEM_MOLECULAR_FORMULA>
C7H10N3+

> <PUBCHEM_MOLECULAR_WEIGHT>
136.1744

> <PUBCHEM_OPENEYE_CAN_SMILES>
C[NH+]=C(C1=CC=NC=C1)N

> <PUBCHEM_OPENEYE_ISO_SMILES>
C[NH+]=C(C1=CC=NC=C1)N

> <PUBCHEM_CACTVS_TPSA>
52.9

> <PUBCHEM_MONOISOTOPIC_WEIGHT>
136.087472

> <PUBCHEM_TOTAL_CHARGE>
1

> <PUBCHEM_HEAVY_ATOM_COUNT>
10

> <PUBCHEM_ATOM_DEF_STEREO_COUNT>
0

> <PUBCHEM_ATOM_UDEF_STEREO_COUNT>
0

> <PUBCHEM_BOND_DEF_STEREO_COUNT>
0

> <PUBCHEM_BOND_UDEF_STEREO_COUNT>
0

> <PUBCHEM_ISOTOPIC_ATOM_COUNT>
0

> <PUBCHEM_COMPONENT_COUNT>
1

> <PUBCHEM_CACTVS_TAUTO_COUNT>
2

> <PUBCHEM_COORDINATE_TYPE>
1
5
255

> <PUBCHEM_BONDANNOTATIONS>
3  10  8
3  9  8
4  6  8
4  7  8
6  9  8
7  10  8

$$$$
39732564
  -OEChem-05231305202D

 32 33  0     0  0  0  0  0  0999 V2000
    6.7619    1.1644    0.0000 O   0  0  0  0  0  0  0  0  0  0  0  0
    4.6783    1.1031    0.0000 N   0  0  0  0  0  0  0  0  0  0  0  0
    6.7619   -0.5676    0.0000 N   0  0  0  0  0  0  0  0  0  0  0  0
    9.2619   -1.4336    0.0000 N   0  3  0  0  0  0  0  0  0  0  0  0
    3.7320    0.7984    0.0000 C   0  0  0  0  0  0  0  0  0  0  0  0
    5.2619    0.2984    0.0000 C   0  0  0  0  0  0  0  0  0  0  0  0
    3.7320   -0.2016    0.0000 C   0  0  0  0  0  0  0  0  0  0  0  0
    4.6783   -0.5063    0.0000 C   0  0  0  0  0  0  0  0  0  0  0  0
    6.2619    0.2984    0.0000 C   0  0  0  0  0  0  0  0  0  0  0  0
    2.8660    1.2984    0.0000 C   0  0  0  0  0  0  0  0  0  0  0  0
    7.7619   -0.5676    0.0000 C   0  0  0  0  0  0  0  0  0  0  0  0
    4.9889    2.0537    0.0000 C   0  0  0  0  0  0  0  0  0  0  0  0
    2.8660   -0.7016    0.0000 C   0  0  0  0  0  0  0  0  0  0  0  0
    8.2619   -1.4336    0.0000 C   0  0  0  0  0  0  0  0  0  0  0  0
    2.0000    0.7984    0.0000 C   0  0  0  0  0  0  0  0  0  0  0  0
    2.0000   -0.2016    0.0000 C   0  0  0  0  0  0  0  0  0  0  0  0
    4.8709   -1.0957    0.0000 H   0  0  0  0  0  0  0  0  0  0  0  0
    8.3445   -0.3556    0.0000 H   0  0  0  0  0  0  0  0  0  0  0  0
    7.6542    0.0430    0.0000 H   0  0  0  0  0  0  0  0  0  0  0  0
    2.8660    1.9184    0.0000 H   0  0  0  0  0  0  0  0  0  0  0  0
    5.5783    1.8610    0.0000 H   0  0  0  0  0  0  0  0  0  0  0  0
    5.1815    2.6430    0.0000 H   0  0  0  0  0  0  0  0  0  0  0  0
    4.3996    2.2463    0.0000 H   0  0  0  0  0  0  0  0  0  0  0  0
    2.8660   -1.3216    0.0000 H   0  0  0  0  0  0  0  0  0  0  0  0
    6.4519   -1.1046    0.0000 H   0  0  0  0  0  0  0  0  0  0  0  0
    7.6793   -1.6457    0.0000 H   0  0  0  0  0  0  0  0  0  0  0  0
    8.3695   -2.0442    0.0000 H   0  0  0  0  0  0  0  0  0  0  0  0
    1.4631    1.1084    0.0000 H   0  0  0  0  0  0  0  0  0  0  0  0
    1.4631   -0.5116    0.0000 H   0  0  0  0  0  0  0  0  0  0  0  0
    9.8819   -1.4336    0.0000 H   0  0  0  0  0  0  0  0  0  0  0  0
    9.2619   -2.0537    0.0000 H   0  0  0  0  0  0  0  0  0  0  0  0
    9.2619   -0.8137    0.0000 H   0  0  0  0  0  0  0  0  0  0  0  0
  1  9  2  0  0  0  0
  2  5  1  0  0  0  0
  2  6  1  0  0  0  0
  2 12  1  0  0  0  0
  3  9  1  0  0  0  0
  3 11  1  0  0  0  0
  3 25  1  0  0  0  0
  4 14  1  0  0  0  0
  4 30  1  0  0  0  0
  4 31  1  0  0  0  0
  4 32  1  0  0  0  0
  5  7  1  0  0  0  0
  5 10  2  0  0  0  0
  6  8  2  0  0  0  0
  6  9  1  0  0  0  0
  7  8  1  0  0  0  0
  7 13  2  0  0  0  0
  8 17  1  0  0  0  0
 10 15  1  0  0  0  0
 10 20  1  0  0  0  0
 11 14  1  0  0  0  0
 11 18  1  0  0  0  0
 11 19  1  0  0  0  0
 12 21  1  0  0  0  0
 12 22  1  0  0  0  0
 12 23  1  0  0  0  0
 13 16  1  0  0  0  0
 13 24  1  0  0  0  0
 14 26  1  0  0  0  0
 14 27  1  0  0  0  0
 15 16  2  0  0  0  0
 15 28  1  0  0  0  0
 16 29  1  0  0  0  0
M  CHG  1   4   1
M  END
> <PUBCHEM_COMPOUND_CID>
39732564

> <PUBCHEM_COMPOUND_CANONICALIZED>
1

> <PUBCHEM_CACTVS_COMPLEXITY>
257

> <PUBCHEM_CACTVS_HBOND_ACCEPTOR>
1

> <PUBCHEM_CACTVS_HBOND_DONOR>
2

> <PUBCHEM_CACTVS_ROTATABLE_BOND>
3

> <PUBCHEM_CACTVS_SUBSKEYS>
AAADceBzIAAAAAAAAAAAAAAAAAAAAWAAAAAwAAAAAAAAAFgB8AAAHgAQAAAADAjBngQywPPMEACoAyVyVACCgCAnAiAI2KG4ZNgIYPLAlbGUIQhglgDIyYcYiYCeAAAAAAACAAAAAAAAAAQAAAAAAAAAAA==

> <PUBCHEM_IUPAC_OPENEYE_NAME>
2-[(1-methylindole-2-carbonyl)amino]ethylammonium

> <PUBCHEM_IUPAC_CAS_NAME>
2-[[(1-methyl-2-indolyl)-oxomethyl]amino]ethylammonium

> <PUBCHEM_IUPAC_NAME>
2-[(1-methylindole-2-carbonyl)amino]ethylazanium

> <PUBCHEM_IUPAC_SYSTEMATIC_NAME>
2-[(1-methylindol-2-yl)carbonylamino]ethylazanium

> <PUBCHEM_IUPAC_TRADITIONAL_NAME>
2-[(1-methylindole-2-carbonyl)amino]ethylammonium

> <PUBCHEM_IUPAC_INCHI>
InChI=1S/C12H15N3O/c1-15-10-5-3-2-4-9(10)8-11(15)12(16)14-7-6-13/h2-5,8H,6-7,13H2,1H3,(H,14,16)/p+1

> <PUBCHEM_IUPAC_INCHIKEY>
BVGKGZCOQLCCFE-UHFFFAOYSA-O

> <PUBCHEM_XLOGP3>
0.8

> <PUBCHEM_EXACT_MASS>
218.129337

> <PUBCHEM_MOLECULAR_FORMULA>
C12H16N3O+

> <PUBCHEM_MOLECULAR_WEIGHT>
218.27494

> <PUBCHEM_OPENEYE_CAN_SMILES>
CN1C2=CC=CC=C2C=C1C(=O)NCC[NH3+]

> <PUBCHEM_OPENEYE_ISO_SMILES>
CN1C2=CC=CC=C2C=C1C(=O)NCC[NH3+]

> <PUBCHEM_CACTVS_TPSA>
61.7

> <PUBCHEM_MONOISOTOPIC_WEIGHT>
218.129337

> <PUBCHEM_TOTAL_CHARGE>
1

> <PUBCHEM_HEAVY_ATOM_COUNT>
16

> <PUBCHEM_ATOM_DEF_STEREO_COUNT>
0

> <PUBCHEM_ATOM_UDEF_STEREO_COUNT>
0

> <PUBCHEM_BOND_DEF_STEREO_COUNT>
0

> <PUBCHEM_BOND_UDEF_STEREO_COUNT>
0

> <PUBCHEM_ISOTOPIC_ATOM_COUNT>
0

> <PUBCHEM_COMPONENT_COUNT>
1

> <PUBCHEM_CACTVS_TAUTO_COUNT>
2

> <PUBCHEM_COORDINATE_TYPE>
1
5
255

> <PUBCHEM_BONDANNOTATIONS>
10  15  8
13  16  8
15  16  8
2  5  8
2  6  8
5  10  8
5  7  8
6  8  8
7  13  8
7  8  8

$$$$
