7625383
  -OEChem-12041209342D

 32 32  0     0  0  0  0  0  0999 V2000
    5.1350    1.3100    0.0000 N   0  3  0  0  0  0  0  0  0  0  0  0
    2.5369   -2.1900    0.0000 N   0  0  0  0  0  0  0  0  0  0  0  0
    4.2690    0.8100    0.0000 C   0  0  0  0  0  0  0  0  0  0  0  0
    6.0010    1.8100    0.0000 C   0  0  0  0  0  0  0  0  0  0  0  0
    4.6350    2.1760    0.0000 C   0  0  0  0  0  0  0  0  0  0  0  0
    4.2690   -0.1900    0.0000 C   0  0  0  0  0  0  0  0  0  0  0  0
    6.0010    2.8100    0.0000 C   0  0  0  0  0  0  0  0  0  0  0  0
    3.6350    2.1760    0.0000 C   0  0  0  0  0  0  0  0  0  0  0  0
    3.4030   -0.6900    0.0000 C   0  0  0  0  0  0  0  0  0  0  0  0
    5.1350   -0.6900    0.0000 C   0  0  0  0  0  0  0  0  0  0  0  0
    3.4030   -1.6900    0.0000 C   0  0  0  0  0  0  0  0  0  0  0  0
    5.1350   -1.6900    0.0000 C   0  0  0  0  0  0  0  0  0  0  0  0
    4.2690   -2.1900    0.0000 C   0  0  0  0  0  0  0  0  0  0  0  0
    5.4450    0.7731    0.0000 H   0  0  0  0  0  0  0  0  0  0  0  0
    4.0569    1.3926    0.0000 H   0  0  0  0  0  0  0  0  0  0  0  0
    3.6584    0.7023    0.0000 H   0  0  0  0  0  0  0  0  0  0  0  0
    5.2176    2.3881    0.0000 H   0  0  0  0  0  0  0  0  0  0  0  0
    4.5274    2.7866    0.0000 H   0  0  0  0  0  0  0  0  0  0  0  0
    6.2131    1.2274    0.0000 H   0  0  0  0  0  0  0  0  0  0  0  0
    6.6116    1.9177    0.0000 H   0  0  0  0  0  0  0  0  0  0  0  0
    6.6210    2.8100    0.0000 H   0  0  0  0  0  0  0  0  0  0  0  0
    3.6350    2.7960    0.0000 H   0  0  0  0  0  0  0  0  0  0  0  0
    3.0150    2.1760    0.0000 H   0  0  0  0  0  0  0  0  0  0  0  0
    3.6350    1.5560    0.0000 H   0  0  0  0  0  0  0  0  0  0  0  0
    6.0010    3.4300    0.0000 H   0  0  0  0  0  0  0  0  0  0  0  0
    5.3810    2.8100    0.0000 H   0  0  0  0  0  0  0  0  0  0  0  0
    2.8660   -0.3800    0.0000 H   0  0  0  0  0  0  0  0  0  0  0  0
    5.6720   -0.3800    0.0000 H   0  0  0  0  0  0  0  0  0  0  0  0
    5.6720   -2.0000    0.0000 H   0  0  0  0  0  0  0  0  0  0  0  0
    4.2690   -2.8100    0.0000 H   0  0  0  0  0  0  0  0  0  0  0  0
    2.5369   -2.8100    0.0000 H   0  0  0  0  0  0  0  0  0  0  0  0
    2.0000   -1.8800    0.0000 H   0  0  0  0  0  0  0  0  0  0  0  0
  1  3  1  0  0  0  0
  1  4  1  0  0  0  0
  1  5  1  0  0  0  0
  1 14  1  0  0  0  0
  2 11  1  0  0  0  0
  2 31  1  0  0  0  0
  2 32  1  0  0  0  0
  3  6  1  0  0  0  0
  3 15  1  0  0  0  0
  3 16  1  0  0  0  0
  4  7  1  0  0  0  0
  4 19  1  0  0  0  0
  4 20  1  0  0  0  0
  5  8  1  0  0  0  0
  5 17  1  0  0  0  0
  5 18  1  0  0  0  0
  6  9  2  0  0  0  0
  6 10  1  0  0  0  0
  7 21  1  0  0  0  0
  7 25  1  0  0  0  0
  7 26  1  0  0  0  0
  8 22  1  0  0  0  0
  8 23  1  0  0  0  0
  8 24  1  0  0  0  0
  9 11  1  0  0  0  0
  9 27  1  0  0  0  0
 10 12  2  0  0  0  0
 10 28  1  0  0  0  0
 11 13  2  0  0  0  0
 12 13  1  0  0  0  0
 12 29  1  0  0  0  0
 13 30  1  0  0  0  0
M  CHG  1   1   1
M  END
> <PUBCHEM_COMPOUND_CID>
7625383

> <PUBCHEM_COMPOUND_CANONICALIZED>
1

> <PUBCHEM_CACTVS_COMPLEXITY>
132

> <PUBCHEM_CACTVS_HBOND_ACCEPTOR>
1

> <PUBCHEM_CACTVS_HBOND_DONOR>
2

> <PUBCHEM_CACTVS_ROTATABLE_BOND>
4

> <PUBCHEM_CACTVS_SUBSKEYS>
AAADceBzAAAAAAAAAAAAAAAAAAAAAAAAAAAwAAAAAAAAAAABAAAAHAAQAAAADAjBGAQywIPAAACAAiRCQACCAAAgAgAIiIAIZIgIICKAkZGEIAhgkACIyAcQgAAOAAAAQAAAAAAAAACAAAAAAAAAAAAAAA==

> <PUBCHEM_IUPAC_OPENEYE_NAME>
(3-aminophenyl)methyl-diethyl-ammonium

> <PUBCHEM_IUPAC_CAS_NAME>
(3-aminophenyl)methyl-diethylammonium

> <PUBCHEM_IUPAC_NAME>
(3-aminophenyl)methyl-diethylazanium

> <PUBCHEM_IUPAC_SYSTEMATIC_NAME>
(3-aminophenyl)methyl-diethyl-azanium

> <PUBCHEM_IUPAC_TRADITIONAL_NAME>
(3-aminobenzyl)-diethyl-ammonium

> <PUBCHEM_IUPAC_INCHI>
InChI=1S/C11H18N2/c1-3-13(4-2)9-10-6-5-7-11(12)8-10/h5-8H,3-4,9,12H2,1-2H3/p+1

> <PUBCHEM_IUPAC_INCHIKEY>
VGVXOXSRINSIFO-UHFFFAOYSA-O

> <PUBCHEM_XLOGP3>
1.4

> <PUBCHEM_EXACT_MASS>
179.154824

> <PUBCHEM_MOLECULAR_FORMULA>
C11H19N2+

> <PUBCHEM_MOLECULAR_WEIGHT>
179.28196

> <PUBCHEM_OPENEYE_CAN_SMILES>
CC[NH+](CC)CC1=CC(=CC=C1)N

> <PUBCHEM_OPENEYE_ISO_SMILES>
CC[NH+](CC)CC1=CC(=CC=C1)N

> <PUBCHEM_CACTVS_TPSA>
30.5

> <PUBCHEM_MONOISOTOPIC_WEIGHT>
179.154824

> <PUBCHEM_TOTAL_CHARGE>
1

> <PUBCHEM_HEAVY_ATOM_COUNT>
13

> <PUBCHEM_ATOM_DEF_STEREO_COUNT>
0

> <PUBCHEM_ATOM_UDEF_STEREO_COUNT>
0

> <PUBCHEM_BOND_DEF_STEREO_COUNT>
0

> <PUBCHEM_BOND_UDEF_STEREO_COUNT>
0

> <PUBCHEM_ISOTOPIC_ATOM_COUNT>
0

> <PUBCHEM_COMPONENT_COUNT>
1

> <PUBCHEM_CACTVS_TAUTO_COUNT>
1

> <PUBCHEM_COORDINATE_TYPE>
1
5
255

> <PUBCHEM_BONDANNOTATIONS>
10  12  8
11  13  8
12  13  8
6  10  8
6  9  8
9  11  8

$$$$
7628883
  -OEChem-12041209352D

 28 28  0     1  0  0  0  0  0999 V2000
    5.4641   -2.2500    0.0000 Cl  0  0  0  0  0  0  0  0  0  0  0  0
    3.7320   -1.2500    0.0000 O   0  0  0  0  0  0  0  0  0  0  0  0
    4.5981    0.2500    0.0000 N   0  0  0  0  0  0  0  0  0  0  0  0
    3.7320    0.7500    0.0000 C   0  0  1  0  0  0  0  0  0  0  0  0
    3.7320    1.7500    0.0000 C   0  0  0  0  0  0  0  0  0  0  0  0
    4.5981    2.2500    0.0000 C   0  0  0  0  0  0  0  0  0  0  0  0
    5.4641    1.7500    0.0000 C   0  0  0  0  0  0  0  0  0  0  0  0
    5.4641    0.7500    0.0000 C   0  0  0  0  0  0  0  0  0  0  0  0
    2.8660    0.2500    0.0000 C   0  0  0  0  0  0  0  0  0  0  0  0
    4.5981   -0.7500    0.0000 C   0  0  0  0  0  0  0  0  0  0  0  0
    2.0000    0.7500    0.0000 C   0  0  0  0  0  0  0  0  0  0  0  0
    5.4641   -1.2500    0.0000 C   0  0  0  0  0  0  0  0  0  0  0  0
    3.7320    0.1300    0.0000 H   0  0  0  0  0  0  0  0  0  0  0  0
    3.5200    2.3326    0.0000 H   0  0  0  0  0  0  0  0  0  0  0  0
    3.1215    1.6423    0.0000 H   0  0  0  0  0  0  0  0  0  0  0  0
    4.9966    2.7250    0.0000 H   0  0  0  0  0  0  0  0  0  0  0  0
    4.1996    2.7250    0.0000 H   0  0  0  0  0  0  0  0  0  0  0  0
    6.0747    1.6423    0.0000 H   0  0  0  0  0  0  0  0  0  0  0  0
    5.6762    2.3326    0.0000 H   0  0  0  0  0  0  0  0  0  0  0  0
    5.6762    0.1674    0.0000 H   0  0  0  0  0  0  0  0  0  0  0  0
    6.0747    0.8577    0.0000 H   0  0  0  0  0  0  0  0  0  0  0  0
    2.4675   -0.2249    0.0000 H   0  0  0  0  0  0  0  0  0  0  0  0
    3.2646   -0.2249    0.0000 H   0  0  0  0  0  0  0  0  0  0  0  0
    2.3100    1.2869    0.0000 H   0  0  0  0  0  0  0  0  0  0  0  0
    1.4631    1.0600    0.0000 H   0  0  0  0  0  0  0  0  0  0  0  0
    1.6900    0.2131    0.0000 H   0  0  0  0  0  0  0  0  0  0  0  0
    6.0747   -1.3577    0.0000 H   0  0  0  0  0  0  0  0  0  0  0  0
    5.6762   -0.6674    0.0000 H   0  0  0  0  0  0  0  0  0  0  0  0
  1 12  1  0  0  0  0
  2 10  2  0  0  0  0
  3  4  1  0  0  0  0
  3  8  1  0  0  0  0
  3 10  1  0  0  0  0
  4  5  1  0  0  0  0
  4  9  1  6  0  0  0
  4 13  1  0  0  0  0
  5  6  1  0  0  0  0
  5 14  1  0  0  0  0
  5 15  1  0  0  0  0
  6  7  1  0  0  0  0
  6 16  1  0  0  0  0
  6 17  1  0  0  0  0
  7  8  1  0  0  0  0
  7 18  1  0  0  0  0
  7 19  1  0  0  0  0
  8 20  1  0  0  0  0
  8 21  1  0  0  0  0
  9 11  1  0  0  0  0
  9 22  1  0  0  0  0
  9 23  1  0  0  0  0
 10 12  1  0  0  0  0
 11 24  1  0  0  0  0
 11 25  1  0  0  0  0
 11 26  1  0  0  0  0
 12 27  1  0  0  0  0
 12 28  1  0  0  0  0
M  END
> <PUBCHEM_COMPOUND_CID>
7628883

> <PUBCHEM_COMPOUND_CANONICALIZED>
1

> <PUBCHEM_CACTVS_COMPLEXITY>
161

> <PUBCHEM_CACTVS_HBOND_ACCEPTOR>
1

> <PUBCHEM_CACTVS_HBOND_DONOR>
0

> <PUBCHEM_CACTVS_ROTATABLE_BOND>
2

> <PUBCHEM_CACTVS_SUBSKEYS>
AAADceByIAAEAAAAAAAAAAAAAAAAAAAAAAAsAAAAAAAAAAAAAAAAHgIAAAAACCvBgEQCAAMAAAAIAAEQEAAAAAAAAAAAAAAIAABAAAIAgABEAAAABgCAAAEQgAAAAAAAAAAAAAAAAAAAAAAAAAAAAAAAAA==

> <PUBCHEM_IUPAC_OPENEYE_NAME>
2-chloro-1-[(2R)-2-ethyl-1-piperidyl]ethanone

> <PUBCHEM_IUPAC_CAS_NAME>
2-chloro-1-[(2R)-2-ethyl-1-piperidinyl]ethanone

> <PUBCHEM_IUPAC_NAME>
2-chloro-1-[(2R)-2-ethylpiperidin-1-yl]ethanone

> <PUBCHEM_IUPAC_SYSTEMATIC_NAME>
2-chloranyl-1-[(2R)-2-ethylpiperidin-1-yl]ethanone

> <PUBCHEM_IUPAC_TRADITIONAL_NAME>
2-chloro-1-[(2R)-2-ethylpiperidino]ethanone

> <PUBCHEM_IUPAC_INCHI>
InChI=1S/C9H16ClNO/c1-2-8-5-3-4-6-11(8)9(12)7-10/h8H,2-7H2,1H3/t8-/m1/s1

> <PUBCHEM_IUPAC_INCHIKEY>
VZNWFNUBOBSJLK-MRVPVSSYSA-N

> <PUBCHEM_XLOGP3>
1.7

> <PUBCHEM_EXACT_MASS>
189.092042

> <PUBCHEM_MOLECULAR_FORMULA>
C9H16ClNO

> <PUBCHEM_MOLECULAR_WEIGHT>
189.68244

> <PUBCHEM_OPENEYE_CAN_SMILES>
CCC1CCCCN1C(=O)CCl

> <PUBCHEM_OPENEYE_ISO_SMILES>
CC[C@@H]1CCCCN1C(=O)CCl

> <PUBCHEM_CACTVS_TPSA>
20.3

> <PUBCHEM_MONOISOTOPIC_WEIGHT>
189.092042

> <PUBCHEM_TOTAL_CHARGE>
0

> <PUBCHEM_HEAVY_ATOM_COUNT>
12

> <PUBCHEM_ATOM_DEF_STEREO_COUNT>
1

> <PUBCHEM_ATOM_UDEF_STEREO_COUNT>
0

> <PUBCHEM_BOND_DEF_STEREO_COUNT>
0

> <PUBCHEM_BOND_UDEF_STEREO_COUNT>
0

> <PUBCHEM_ISOTOPIC_ATOM_COUNT>
0

> <PUBCHEM_COMPONENT_COUNT>
1

> <PUBCHEM_CACTVS_TAUTO_COUNT>
1

> <PUBCHEM_COORDINATE_TYPE>
1
5
255

> <PUBCHEM_BONDANNOTATIONS>
4  9  6

$$$$
7629074
  -OEChem-12041209352D

 28 28  0     1  0  0  0  0  0999 V2000
    5.4641   -2.2500    0.0000 Cl  0  0  0  0  0  0  0  0  0  0  0  0
    3.7320   -1.2500    0.0000 O   0  0  0  0  0  0  0  0  0  0  0  0
    4.5981    0.2500    0.0000 N   0  0  0  0  0  0  0  0  0  0  0  0
    3.7320    0.7500    0.0000 C   0  0  2  0  0  0  0  0  0  0  0  0
    3.7320    1.7500    0.0000 C   0  0  0  0  0  0  0  0  0  0  0  0
    4.5981    2.2500    0.0000 C   0  0  0  0  0  0  0  0  0  0  0  0
    5.4641    1.7500    0.0000 C   0  0  0  0  0  0  0  0  0  0  0  0
    5.4641    0.7500    0.0000 C   0  0  0  0  0  0  0  0  0  0  0  0
    2.8660    0.2500    0.0000 C   0  0  0  0  0  0  0  0  0  0  0  0
    4.5981   -0.7500    0.0000 C   0  0  0  0  0  0  0  0  0  0  0  0
    2.0000    0.7500    0.0000 C   0  0  0  0  0  0  0  0  0  0  0  0
    5.4641   -1.2500    0.0000 C   0  0  0  0  0  0  0  0  0  0  0  0
    3.7320    0.1300    0.0000 H   0  0  0  0  0  0  0  0  0  0  0  0
    3.5200    2.3326    0.0000 H   0  0  0  0  0  0  0  0  0  0  0  0
    3.1215    1.6423    0.0000 H   0  0  0  0  0  0  0  0  0  0  0  0
    4.9966    2.7250    0.0000 H   0  0  0  0  0  0  0  0  0  0  0  0
    4.1996    2.7250    0.0000 H   0  0  0  0  0  0  0  0  0  0  0  0
    6.0747    1.6423    0.0000 H   0  0  0  0  0  0  0  0  0  0  0  0
    5.6762    2.3326    0.0000 H   0  0  0  0  0  0  0  0  0  0  0  0
    5.6762    0.1674    0.0000 H   0  0  0  0  0  0  0  0  0  0  0  0
    6.0747    0.8577    0.0000 H   0  0  0  0  0  0  0  0  0  0  0  0
    2.4675   -0.2249    0.0000 H   0  0  0  0  0  0  0  0  0  0  0  0
    3.2646   -0.2249    0.0000 H   0  0  0  0  0  0  0  0  0  0  0  0
    2.3100    1.2869    0.0000 H   0  0  0  0  0  0  0  0  0  0  0  0
    1.4631    1.0600    0.0000 H   0  0  0  0  0  0  0  0  0  0  0  0
    1.6900    0.2131    0.0000 H   0  0  0  0  0  0  0  0  0  0  0  0
    6.0747   -1.3577    0.0000 H   0  0  0  0  0  0  0  0  0  0  0  0
    5.6762   -0.6674    0.0000 H   0  0  0  0  0  0  0  0  0  0  0  0
  1 12  1  0  0  0  0
  2 10  2  0  0  0  0
  3  4  1  0  0  0  0
  3  8  1  0  0  0  0
  3 10  1  0  0  0  0
  4  5  1  0  0  0  0
  4  9  1  1  0  0  0
  4 13  1  0  0  0  0
  5  6  1  0  0  0  0
  5 14  1  0  0  0  0
  5 15  1  0  0  0  0
  6  7  1  0  0  0  0
  6 16  1  0  0  0  0
  6 17  1  0  0  0  0
  7  8  1  0  0  0  0
  7 18  1  0  0  0  0
  7 19  1  0  0  0  0
  8 20  1  0  0  0  0
  8 21  1  0  0  0  0
  9 11  1  0  0  0  0
  9 22  1  0  0  0  0
  9 23  1  0  0  0  0
 10 12  1  0  0  0  0
 11 24  1  0  0  0  0
 11 25  1  0  0  0  0
 11 26  1  0  0  0  0
 12 27  1  0  0  0  0
 12 28  1  0  0  0  0
M  END
> <PUBCHEM_COMPOUND_CID>
7629074

> <PUBCHEM_COMPOUND_CANONICALIZED>
1

> <PUBCHEM_CACTVS_COMPLEXITY>
161

> <PUBCHEM_CACTVS_HBOND_ACCEPTOR>
1

> <PUBCHEM_CACTVS_HBOND_DONOR>
0

> <PUBCHEM_CACTVS_ROTATABLE_BOND>
2

> <PUBCHEM_CACTVS_SUBSKEYS>
AAADceByIAAEAAAAAAAAAAAAAAAAAAAAAAAsAAAAAAAAAAAAAAAAHgIAAAAACCvBgEQCAAMAAAAIAAEQEAAAAAAAAAAAAAAIAABAAAIAgABEAAAABgCAAAEQgAAAAAAAAAAAAAAAAAAAAAAAAAAAAAAAAA==

> <PUBCHEM_IUPAC_OPENEYE_NAME>
2-chloro-1-[(2S)-2-ethyl-1-piperidyl]ethanone

> <PUBCHEM_IUPAC_CAS_NAME>
2-chloro-1-[(2S)-2-ethyl-1-piperidinyl]ethanone

> <PUBCHEM_IUPAC_NAME>
2-chloro-1-[(2S)-2-ethylpiperidin-1-yl]ethanone

> <PUBCHEM_IUPAC_SYSTEMATIC_NAME>
2-chloranyl-1-[(2S)-2-ethylpiperidin-1-yl]ethanone

> <PUBCHEM_IUPAC_TRADITIONAL_NAME>
2-chloro-1-[(2S)-2-ethylpiperidino]ethanone

> <PUBCHEM_IUPAC_INCHI>
InChI=1S/C9H16ClNO/c1-2-8-5-3-4-6-11(8)9(12)7-10/h8H,2-7H2,1H3/t8-/m0/s1

> <PUBCHEM_IUPAC_INCHIKEY>
VZNWFNUBOBSJLK-QMMMGPOBSA-N

> <PUBCHEM_XLOGP3>
1.7

> <PUBCHEM_EXACT_MASS>
189.092042

> <PUBCHEM_MOLECULAR_FORMULA>
C9H16ClNO

> <PUBCHEM_MOLECULAR_WEIGHT>
189.68244

> <PUBCHEM_OPENEYE_CAN_SMILES>
CCC1CCCCN1C(=O)CCl

> <PUBCHEM_OPENEYE_ISO_SMILES>
CC[C@H]1CCCCN1C(=O)CCl

> <PUBCHEM_CACTVS_TPSA>
20.3

> <PUBCHEM_MONOISOTOPIC_WEIGHT>
189.092042

> <PUBCHEM_TOTAL_CHARGE>
0

> <PUBCHEM_HEAVY_ATOM_COUNT>
12

> <PUBCHEM_ATOM_DEF_STEREO_COUNT>
1

> <PUBCHEM_ATOM_UDEF_STEREO_COUNT>
0

> <PUBCHEM_BOND_DEF_STEREO_COUNT>
0

> <PUBCHEM_BOND_UDEF_STEREO_COUNT>
0

> <PUBCHEM_ISOTOPIC_ATOM_COUNT>
0

> <PUBCHEM_COMPONENT_COUNT>
1

> <PUBCHEM_CACTVS_TAUTO_COUNT>
1

> <PUBCHEM_COORDINATE_TYPE>
1
5
255

> <PUBCHEM_BONDANNOTATIONS>
4  9  5

$$$$
7632282
  -OEChem-12041209352D

 30 31  0     0  0  0  0  0  0999 V2000
    2.0000   -1.5000    0.0000 Cl  0  0  0  0  0  0  0  0  0  0  0  0
    5.4641   -1.5000    0.0000 Cl  0  0  0  0  0  0  0  0  0  0  0  0
    4.5981    0.0000    0.0000 N   0  3  0  0  0  0  0  0  0  0  0  0
    4.5981    3.0000    0.0000 N   0  0  0  0  0  0  0  0  0  0  0  0
    3.7320   -0.5000    0.0000 C   0  0  0  0  0  0  0  0  0  0  0  0
    5.4641    0.5000    0.0000 C   0  0  0  0  0  0  0  0  0  0  0  0
    3.7320   -1.5000    0.0000 C   0  0  0  0  0  0  0  0  0  0  0  0
    5.4641    1.5000    0.0000 C   0  0  0  0  0  0  0  0  0  0  0  0
    2.8660   -2.0000    0.0000 C   0  0  0  0  0  0  0  0  0  0  0  0
    4.5981   -2.0000    0.0000 C   0  0  0  0  0  0  0  0  0  0  0  0
    6.3301    2.0000    0.0000 C   0  0  0  0  0  0  0  0  0  0  0  0
    4.5981    2.0000    0.0000 C   0  0  0  0  0  0  0  0  0  0  0  0
    2.8660   -3.0000    0.0000 C   0  0  0  0  0  0  0  0  0  0  0  0
    4.5981   -3.0000    0.0000 C   0  0  0  0  0  0  0  0  0  0  0  0
    3.7320   -3.5000    0.0000 C   0  0  0  0  0  0  0  0  0  0  0  0
    6.3301    3.0000    0.0000 C   0  0  0  0  0  0  0  0  0  0  0  0
    5.4641    3.5000    0.0000 C   0  0  0  0  0  0  0  0  0  0  0  0
    4.2881    0.5369    0.0000 H   0  0  0  0  0  0  0  0  0  0  0  0
    4.9081   -0.5369    0.0000 H   0  0  0  0  0  0  0  0  0  0  0  0
    3.5200    0.0826    0.0000 H   0  0  0  0  0  0  0  0  0  0  0  0
    3.1215   -0.6077    0.0000 H   0  0  0  0  0  0  0  0  0  0  0  0
    5.6762   -0.0826    0.0000 H   0  0  0  0  0  0  0  0  0  0  0  0
    6.0747    0.6077    0.0000 H   0  0  0  0  0  0  0  0  0  0  0  0
    6.8671    1.6900    0.0000 H   0  0  0  0  0  0  0  0  0  0  0  0
    4.0611    1.6900    0.0000 H   0  0  0  0  0  0  0  0  0  0  0  0
    2.3291   -3.3100    0.0000 H   0  0  0  0  0  0  0  0  0  0  0  0
    5.1350   -3.3100    0.0000 H   0  0  0  0  0  0  0  0  0  0  0  0
    3.7320   -4.1200    0.0000 H   0  0  0  0  0  0  0  0  0  0  0  0
    6.8671    3.3100    0.0000 H   0  0  0  0  0  0  0  0  0  0  0  0
    5.4641    4.1200    0.0000 H   0  0  0  0  0  0  0  0  0  0  0  0
  1  9  1  0  0  0  0
  2 10  1  0  0  0  0
  3  5  1  0  0  0  0
  3  6  1  0  0  0  0
  3 18  1  0  0  0  0
  3 19  1  0  0  0  0
  4 12  1  0  0  0  0
  4 17  2  0  0  0  0
  5  7  1  0  0  0  0
  5 20  1  0  0  0  0
  5 21  1  0  0  0  0
  6  8  1  0  0  0  0
  6 22  1  0  0  0  0
  6 23  1  0  0  0  0
  7  9  2  0  0  0  0
  7 10  1  0  0  0  0
  8 11  1  0  0  0  0
  8 12  2  0  0  0  0
  9 13  1  0  0  0  0
 10 14  2  0  0  0  0
 11 16  2  0  0  0  0
 11 24  1  0  0  0  0
 12 25  1  0  0  0  0
 13 15  2  0  0  0  0
 13 26  1  0  0  0  0
 14 15  1  0  0  0  0
 14 27  1  0  0  0  0
 15 28  1  0  0  0  0
 16 17  1  0  0  0  0
 16 29  1  0  0  0  0
 17 30  1  0  0  0  0
M  CHG  1   3   1
M  END
> <PUBCHEM_COMPOUND_CID>
7632282

> <PUBCHEM_COMPOUND_CANONICALIZED>
1

> <PUBCHEM_CACTVS_COMPLEXITY>
216

> <PUBCHEM_CACTVS_HBOND_ACCEPTOR>
1

> <PUBCHEM_CACTVS_HBOND_DONOR>
1

> <PUBCHEM_CACTVS_ROTATABLE_BOND>
4

> <PUBCHEM_CACTVS_SUBSKEYS>
AAADccBzAAAGAAAAAAAAAAAAAAAAAAAAAAA8QAAAAAAAAAABwAAAHAIQAAAADALBGiQ8gJLIEACgAjBnRACCgCAxByAI2KA4ZpgIIOLB05GEIAhggADIyAcQgAAOAAAAAACBAAAAAAAAAQIAAAAAAAAAAA==

> <PUBCHEM_IUPAC_OPENEYE_NAME>
(2,6-dichlorophenyl)methyl-(3-pyridylmethyl)ammonium

> <PUBCHEM_IUPAC_CAS_NAME>
(2,6-dichlorophenyl)methyl-(3-pyridinylmethyl)ammonium

> <PUBCHEM_IUPAC_NAME>
(2,6-dichlorophenyl)methyl-(pyridin-3-ylmethyl)azanium

> <PUBCHEM_IUPAC_SYSTEMATIC_NAME>
[2,6-bis(chloranyl)phenyl]methyl-(pyridin-3-ylmethyl)azanium

> <PUBCHEM_IUPAC_TRADITIONAL_NAME>
(2,6-dichlorobenzyl)-(3-pyridylmethyl)ammonium

> <PUBCHEM_IUPAC_INCHI>
InChI=1S/C13H12Cl2N2/c14-12-4-1-5-13(15)11(12)9-17-8-10-3-2-6-16-7-10/h1-7,17H,8-9H2/p+1

> <PUBCHEM_IUPAC_INCHIKEY>
GAASKWJATDKLAP-UHFFFAOYSA-O

> <PUBCHEM_XLOGP3>
3.1

> <PUBCHEM_EXACT_MASS>
267.045579

> <PUBCHEM_MOLECULAR_FORMULA>
C13H13Cl2N2+

> <PUBCHEM_MOLECULAR_WEIGHT>
268.16172

> <PUBCHEM_OPENEYE_CAN_SMILES>
C1=CC(=C(C(=C1)Cl)C[NH2+]CC2=CN=CC=C2)Cl

> <PUBCHEM_OPENEYE_ISO_SMILES>
C1=CC(=C(C(=C1)Cl)C[NH2+]CC2=CN=CC=C2)Cl

> <PUBCHEM_CACTVS_TPSA>
29.5

> <PUBCHEM_MONOISOTOPIC_WEIGHT>
267.045579

> <PUBCHEM_TOTAL_CHARGE>
1

> <PUBCHEM_HEAVY_ATOM_COUNT>
17

> <PUBCHEM_ATOM_DEF_STEREO_COUNT>
0

> <PUBCHEM_ATOM_UDEF_STEREO_COUNT>
0

> <PUBCHEM_BOND_DEF_STEREO_COUNT>
0

> <PUBCHEM_BOND_UDEF_STEREO_COUNT>
0

> <PUBCHEM_ISOTOPIC_ATOM_COUNT>
0

> <PUBCHEM_COMPONENT_COUNT>
1

> <PUBCHEM_CACTVS_TAUTO_COUNT>
1

> <PUBCHEM_COORDINATE_TYPE>
1
5
255

> <PUBCHEM_BONDANNOTATIONS>
10  14  8
11  16  8
13  15  8
14  15  8
16  17  8
4  12  8
4  17  8
7  10  8
7  9  8
8  11  8
8  12  8
9  13  8

$$$$
7632664
  -OEChem-12041209352D

 35 37  0     0  0  0  0  0  0999 V2000
    7.9756    3.1878    0.0000 S   0  0  0  0  0  0  0  0  0  0  0  0
    6.2781    1.1182    0.0000 N   0  3  0  0  0  0  0  0  0  0  0  0
    4.6783   -2.5985    0.0000 N   0  0  0  0  0  0  0  0  0  0  0  0
    5.9674    0.1677    0.0000 C   0  0  0  0  0  0  0  0  0  0  0  0
    4.9889   -0.0385    0.0000 C   0  0  0  0  0  0  0  0  0  0  0  0
    4.6783   -0.9890    0.0000 C   0  0  0  0  0  0  0  0  0  0  0  0
    3.7320   -1.2938    0.0000 C   0  0  0  0  0  0  0  0  0  0  0  0
    6.5888    2.0688    0.0000 C   0  0  0  0  0  0  0  0  0  0  0  0
    3.7320   -2.2938    0.0000 C   0  0  0  0  0  0  0  0  0  0  0  0
    5.2619   -1.7938    0.0000 C   0  0  0  0  0  0  0  0  0  0  0  0
    7.5673    2.2750    0.0000 C   0  0  0  0  0  0  0  0  0  0  0  0
    2.8660   -0.7938    0.0000 C   0  0  0  0  0  0  0  0  0  0  0  0
    2.8660   -2.7938    0.0000 C   0  0  0  0  0  0  0  0  0  0  0  0
    2.0000   -1.2938    0.0000 C   0  0  0  0  0  0  0  0  0  0  0  0
    2.0000   -2.2938    0.0000 C   0  0  0  0  0  0  0  0  0  0  0  0
    8.3093    1.6046    0.0000 C   0  0  0  0  0  0  0  0  0  0  0  0
    9.1761    2.1031    0.0000 C   0  0  0  0  0  0  0  0  0  0  0  0
    8.9699    3.0816    0.0000 C   0  0  0  0  0  0  0  0  0  0  0  0
    5.9880   -0.4519    0.0000 H   0  0  0  0  0  0  0  0  0  0  0  0
    6.5812    0.0804    0.0000 H   0  0  0  0  0  0  0  0  0  0  0  0
    4.9684    0.5812    0.0000 H   0  0  0  0  0  0  0  0  0  0  0  0
    4.3751    0.0488    0.0000 H   0  0  0  0  0  0  0  0  0  0  0  0
    6.8674    0.9256    0.0000 H   0  0  0  0  0  0  0  0  0  0  0  0
    5.6888    1.3108    0.0000 H   0  0  0  0  0  0  0  0  0  0  0  0
    6.5682    2.6884    0.0000 H   0  0  0  0  0  0  0  0  0  0  0  0
    5.9750    2.1561    0.0000 H   0  0  0  0  0  0  0  0  0  0  0  0
    5.8819   -1.7938    0.0000 H   0  0  0  0  0  0  0  0  0  0  0  0
    4.8709   -3.1878    0.0000 H   0  0  0  0  0  0  0  0  0  0  0  0
    2.8660   -0.1738    0.0000 H   0  0  0  0  0  0  0  0  0  0  0  0
    2.8660   -3.4138    0.0000 H   0  0  0  0  0  0  0  0  0  0  0  0
    1.4631   -0.9838    0.0000 H   0  0  0  0  0  0  0  0  0  0  0  0
    1.4631   -2.6038    0.0000 H   0  0  0  0  0  0  0  0  0  0  0  0
    8.2434    0.9881    0.0000 H   0  0  0  0  0  0  0  0  0  0  0  0
    9.7421    1.8499    0.0000 H   0  0  0  0  0  0  0  0  0  0  0  0
    9.3856    3.5416    0.0000 H   0  0  0  0  0  0  0  0  0  0  0  0
  1 11  1  0  0  0  0
  1 18  1  0  0  0  0
  2  4  1  0  0  0  0
  2  8  1  0  0  0  0
  2 23  1  0  0  0  0
  2 24  1  0  0  0  0
  3  9  1  0  0  0  0
  3 10  1  0  0  0  0
  3 28  1  0  0  0  0
  4  5  1  0  0  0  0
  4 19  1  0  0  0  0
  4 20  1  0  0  0  0
  5  6  1  0  0  0  0
  5 21  1  0  0  0  0
  5 22  1  0  0  0  0
  6  7  1  0  0  0  0
  6 10  2  0  0  0  0
  7  9  1  0  0  0  0
  7 12  2  0  0  0  0
  8 11  1  0  0  0  0
  8 25  1  0  0  0  0
  8 26  1  0  0  0  0
  9 13  2  0  0  0  0
 10 27  1  0  0  0  0
 11 16  2  0  0  0  0
 12 14  1  0  0  0  0
 12 29  1  0  0  0  0
 13 15  1  0  0  0  0
 13 30  1  0  0  0  0
 14 15  2  0  0  0  0
 14 31  1  0  0  0  0
 15 32  1  0  0  0  0
 16 17  1  0  0  0  0
 16 33  1  0  0  0  0
 17 18  2  0  0  0  0
 17 34  1  0  0  0  0
 18 35  1  0  0  0  0
M  CHG  1   2   1
M  END
> <PUBCHEM_COMPOUND_CID>
7632664

> <PUBCHEM_COMPOUND_CANONICALIZED>
1

> <PUBCHEM_CACTVS_COMPLEXITY>
259

> <PUBCHEM_CACTVS_HBOND_ACCEPTOR>
1

> <PUBCHEM_CACTVS_HBOND_DONOR>
2

> <PUBCHEM_CACTVS_ROTATABLE_BOND>
5

> <PUBCHEM_CACTVS_SUBSKEYS>
AAADceBzAABAAAAAAAAAAAAAAAAAAWJAAAAwAAAAAAAAAFgB/AAAHAQQAAAADAjFXgS8wfLJkAikAzRnRACDgKAxCjBI2bg4ZJgIIOLgkZGEIAhgkADoyAcQgMAOgAAAAAACAAAAAAAAAAQAAAAAAAAAAA==

> <PUBCHEM_IUPAC_OPENEYE_NAME>
2-(1H-indol-3-yl)ethyl-(2-thienylmethyl)ammonium

> <PUBCHEM_IUPAC_CAS_NAME>
2-(1H-indol-3-yl)ethyl-(thiophen-2-ylmethyl)ammonium

> <PUBCHEM_IUPAC_NAME>
2-(1H-indol-3-yl)ethyl-(thiophen-2-ylmethyl)azanium

> <PUBCHEM_IUPAC_SYSTEMATIC_NAME>
2-(1H-indol-3-yl)ethyl-(thiophen-2-ylmethyl)azanium

> <PUBCHEM_IUPAC_TRADITIONAL_NAME>
2-(1H-indol-3-yl)ethyl-(2-thenyl)ammonium

> <PUBCHEM_IUPAC_INCHI>
InChI=1S/C15H16N2S/c1-2-6-15-14(5-1)12(10-17-15)7-8-16-11-13-4-3-9-18-13/h1-6,9-10,16-17H,7-8,11H2/p+1

> <PUBCHEM_IUPAC_INCHIKEY>
MKSYHZONULKPFE-UHFFFAOYSA-O

> <PUBCHEM_XLOGP3>
3.3

> <PUBCHEM_EXACT_MASS>
257.111245

> <PUBCHEM_MOLECULAR_FORMULA>
C15H17N2S+

> <PUBCHEM_MOLECULAR_WEIGHT>
257.37388

> <PUBCHEM_OPENEYE_CAN_SMILES>
C1=CC=C2C(=C1)C(=CN2)CC[NH2+]CC3=CC=CS3

> <PUBCHEM_OPENEYE_ISO_SMILES>
C1=CC=C2C(=C1)C(=CN2)CC[NH2+]CC3=CC=CS3

> <PUBCHEM_CACTVS_TPSA>
60.6

> <PUBCHEM_MONOISOTOPIC_WEIGHT>
257.111245

> <PUBCHEM_TOTAL_CHARGE>
1

> <PUBCHEM_HEAVY_ATOM_COUNT>
18

> <PUBCHEM_ATOM_DEF_STEREO_COUNT>
0

> <PUBCHEM_ATOM_UDEF_STEREO_COUNT>
0

> <PUBCHEM_BOND_DEF_STEREO_COUNT>
0

> <PUBCHEM_BOND_UDEF_STEREO_COUNT>
0

> <PUBCHEM_ISOTOPIC_ATOM_COUNT>
0

> <PUBCHEM_COMPONENT_COUNT>
1

> <PUBCHEM_CACTVS_TAUTO_COUNT>
1

> <PUBCHEM_COORDINATE_TYPE>
1
5
255

> <PUBCHEM_BONDANNOTATIONS>
1  11  8
1  18  8
11  16  8
12  14  8
13  15  8
14  15  8
16  17  8
17  18  8
3  10  8
3  9  8
6  10  8
6  7  8
7  12  8
7  9  8
9  13  8

$$$$
