38511668
  -OEChem-12041211532D

 40 40  0     1  0  0  0  0  0999 V2000
    5.4641   -0.2500    0.0000 O   0  0  0  0  0  0  0  0  0  0  0  0
    5.4641    1.7500    0.0000 N   0  3  3  0  0  0  0  0  0  0  0  0
    3.7320   -0.2500    0.0000 N   0  0  0  0  0  0  0  0  0  0  0  0
    6.3301    2.2500    0.0000 C   0  0  0  0  0  0  0  0  0  0  0  0
    4.5981    1.2500    0.0000 C   0  0  0  0  0  0  0  0  0  0  0  0
    4.9641    2.6160    0.0000 C   0  0  0  0  0  0  0  0  0  0  0  0
    6.3301    3.2500    0.0000 C   0  0  0  0  0  0  0  0  0  0  0  0
    7.1962    1.7500    0.0000 C   0  0  0  0  0  0  0  0  0  0  0  0
    4.5981    0.2500    0.0000 C   0  0  0  0  0  0  0  0  0  0  0  0
    3.7320   -1.2500    0.0000 C   0  0  0  0  0  0  0  0  0  0  0  0
    2.8660   -1.7500    0.0000 C   0  0  0  0  0  0  0  0  0  0  0  0
    2.8660   -2.7500    0.0000 C   0  0  0  0  0  0  0  0  0  0  0  0
    4.5981   -1.7500    0.0000 C   0  0  0  0  0  0  0  0  0  0  0  0
    2.0000   -1.2500    0.0000 C   0  0  0  0  0  0  0  0  0  0  0  0
    3.7320   -3.2500    0.0000 C   0  0  0  0  0  0  0  0  0  0  0  0
    4.5981   -2.7500    0.0000 C   0  0  0  0  0  0  0  0  0  0  0  0
    2.0000   -3.2500    0.0000 C   0  0  0  0  0  0  0  0  0  0  0  0
    5.7741    1.2131    0.0000 H   0  0  0  0  0  0  0  0  0  0  0  0
    5.7932    2.5600    0.0000 H   0  0  0  0  0  0  0  0  0  0  0  0
    4.3860    1.8326    0.0000 H   0  0  0  0  0  0  0  0  0  0  0  0
    3.9875    1.1423    0.0000 H   0  0  0  0  0  0  0  0  0  0  0  0
    5.5010    2.9260    0.0000 H   0  0  0  0  0  0  0  0  0  0  0  0
    4.6541    3.1530    0.0000 H   0  0  0  0  0  0  0  0  0  0  0  0
    4.4272    2.3060    0.0000 H   0  0  0  0  0  0  0  0  0  0  0  0
    6.8862    1.2131    0.0000 H   0  0  0  0  0  0  0  0  0  0  0  0
    7.7331    1.4400    0.0000 H   0  0  0  0  0  0  0  0  0  0  0  0
    7.5062    2.2869    0.0000 H   0  0  0  0  0  0  0  0  0  0  0  0
    6.9501    3.2500    0.0000 H   0  0  0  0  0  0  0  0  0  0  0  0
    6.3301    3.8700    0.0000 H   0  0  0  0  0  0  0  0  0  0  0  0
    5.7101    3.2500    0.0000 H   0  0  0  0  0  0  0  0  0  0  0  0
    3.1951    0.0600    0.0000 H   0  0  0  0  0  0  0  0  0  0  0  0
    5.1350   -1.4400    0.0000 H   0  0  0  0  0  0  0  0  0  0  0  0
    2.3100   -0.7131    0.0000 H   0  0  0  0  0  0  0  0  0  0  0  0
    1.4631   -0.9400    0.0000 H   0  0  0  0  0  0  0  0  0  0  0  0
    1.6900   -1.7869    0.0000 H   0  0  0  0  0  0  0  0  0  0  0  0
    3.7320   -3.8700    0.0000 H   0  0  0  0  0  0  0  0  0  0  0  0
    5.1350   -3.0600    0.0000 H   0  0  0  0  0  0  0  0  0  0  0  0
    1.6900   -2.7131    0.0000 H   0  0  0  0  0  0  0  0  0  0  0  0
    1.4631   -3.5600    0.0000 H   0  0  0  0  0  0  0  0  0  0  0  0
    2.3100   -3.7869    0.0000 H   0  0  0  0  0  0  0  0  0  0  0  0
  1  9  2  0  0  0  0
  2  4  1  0  0  0  0
  2  5  1  0  0  0  0
  2  6  1  0  0  0  0
  2 18  1  0  0  0  0
  3  9  1  0  0  0  0
  3 10  1  0  0  0  0
  3 31  1  0  0  0  0
  4  7  1  0  0  0  0
  4  8  1  0  0  0  0
  4 19  1  0  0  0  0
  5  9  1  0  0  0  0
  5 20  1  0  0  0  0
  5 21  1  0  0  0  0
  6 22  1  0  0  0  0
  6 23  1  0  0  0  0
  6 24  1  0  0  0  0
  7 28  1  0  0  0  0
  7 29  1  0  0  0  0
  7 30  1  0  0  0  0
  8 25  1  0  0  0  0
  8 26  1  0  0  0  0
  8 27  1  0  0  0  0
 10 11  1  0  0  0  0
 10 13  2  0  0  0  0
 11 12  2  0  0  0  0
 11 14  1  0  0  0  0
 12 15  1  0  0  0  0
 12 17  1  0  0  0  0
 13 16  1  0  0  0  0
 13 32  1  0  0  0  0
 14 33  1  0  0  0  0
 14 34  1  0  0  0  0
 14 35  1  0  0  0  0
 15 16  2  0  0  0  0
 15 36  1  0  0  0  0
 16 37  1  0  0  0  0
 17 38  1  0  0  0  0
 17 39  1  0  0  0  0
 17 40  1  0  0  0  0
M  CHG  1   2   1
M  END
> <PUBCHEM_COMPOUND_CID>
38511668

> <PUBCHEM_COMPOUND_CANONICALIZED>
1

> <PUBCHEM_CACTVS_COMPLEXITY>
253

> <PUBCHEM_CACTVS_HBOND_ACCEPTOR>
1

> <PUBCHEM_CACTVS_HBOND_DONOR>
2

> <PUBCHEM_CACTVS_ROTATABLE_BOND>
4

> <PUBCHEM_CACTVS_SUBSKEYS>
AAADceBzIAAAAAAAAAAAAAAAAAAAAAAAAAAwAAAAAAAAAAABAAAAHgAQAAAADCjBmAQywIPAAACIAiVSUACCAAAhAgAIiICIZIgIYCLAkbGUIAhglADIyAcQgIAOgAAAQAASAAAAAACAACQAAAAAAAAAAA==

> <PUBCHEM_IUPAC_OPENEYE_NAME>
[2-(2,3-dimethylanilino)-2-oxo-ethyl]-isopropyl-methyl-ammonium

> <PUBCHEM_IUPAC_CAS_NAME>
[2-(2,3-dimethylanilino)-2-oxoethyl]-methyl-propan-2-ylammonium

> <PUBCHEM_IUPAC_NAME>
[2-(2,3-dimethylanilino)-2-oxoethyl]-methyl-propan-2-ylazanium

> <PUBCHEM_IUPAC_SYSTEMATIC_NAME>
[2-[(2,3-dimethylphenyl)amino]-2-oxidanylidene-ethyl]-methyl-propan-2-yl-azanium

> <PUBCHEM_IUPAC_TRADITIONAL_NAME>
[2-(2,3-dimethylanilino)-2-keto-ethyl]-isopropyl-methyl-ammonium

> <PUBCHEM_IUPAC_INCHI>
InChI=1S/C14H22N2O/c1-10(2)16(5)9-14(17)15-13-8-6-7-11(3)12(13)4/h6-8,10H,9H2,1-5H3,(H,15,17)/p+1

> <PUBCHEM_IUPAC_INCHIKEY>
FTYRDDAZBDNHTG-UHFFFAOYSA-O

> <PUBCHEM_XLOGP3>
2.2

> <PUBCHEM_EXACT_MASS>
235.181038

> <PUBCHEM_MOLECULAR_FORMULA>
C14H23N2O+

> <PUBCHEM_MOLECULAR_WEIGHT>
235.34522

> <PUBCHEM_OPENEYE_CAN_SMILES>
CC1=C(C(=CC=C1)NC(=O)C[NH+](C)C(C)C)C

> <PUBCHEM_OPENEYE_ISO_SMILES>
CC1=C(C(=CC=C1)NC(=O)C[NH+](C)C(C)C)C

> <PUBCHEM_CACTVS_TPSA>
33.5

> <PUBCHEM_MONOISOTOPIC_WEIGHT>
235.181038

> <PUBCHEM_TOTAL_CHARGE>
1

> <PUBCHEM_HEAVY_ATOM_COUNT>
17

> <PUBCHEM_ATOM_DEF_STEREO_COUNT>
0

> <PUBCHEM_ATOM_UDEF_STEREO_COUNT>
0

> <PUBCHEM_BOND_DEF_STEREO_COUNT>
0

> <PUBCHEM_BOND_UDEF_STEREO_COUNT>
0

> <PUBCHEM_ISOTOPIC_ATOM_COUNT>
0

> <PUBCHEM_COMPONENT_COUNT>
1

> <PUBCHEM_CACTVS_TAUTO_COUNT>
3

> <PUBCHEM_COORDINATE_TYPE>
1
5
255

> <PUBCHEM_BONDANNOTATIONS>
10  11  8
10  13  8
11  12  8
12  15  8
13  16  8
15  16  8

$$$$
