46531877
  -OEChem-12041212082D

 47 51  0     0  0  0  0  0  0999 V2000
    4.9575    1.7752    0.0000 O   0  0  0  0  0  0  0  0  0  0  0  0
    6.1822    0.5505    0.0000 N   0  0  0  0  0  0  0  0  0  0  0  0
    3.6730    0.5850    0.0000 C   0  0  0  0  0  0  0  0  0  0  0  0
    4.5092   -0.8633    0.0000 C   0  0  0  0  0  0  0  0  0  0  0  0
    2.8368   -0.8633    0.0000 C   0  0  0  0  0  0  0  0  0  0  0  0
    2.9819   -1.2984    0.0000 C   0  0  0  0  0  0  0  0  0  0  0  0
    4.5092    0.1022    0.0000 C   0  0  0  0  0  0  0  0  0  0  0  0
    2.8368    0.1022    0.0000 C   0  0  0  0  0  0  0  0  0  0  0  0
    3.6730   -1.1661    0.0000 C   0  0  0  0  0  0  0  0  0  0  0  0
    2.9819   -0.2531    0.0000 C   0  0  0  0  0  0  0  0  0  0  0  0
    3.8876   -1.7752    0.0000 C   0  0  0  0  0  0  0  0  0  0  0  0
    2.0000   -1.3461    0.0000 C   0  0  0  0  0  0  0  0  0  0  0  0
    5.2163    0.8093    0.0000 C   0  0  0  0  0  0  0  0  0  0  0  0
    6.4410   -0.4154    0.0000 C   0  0  0  0  0  0  0  0  0  0  0  0
    6.8893    1.2576    0.0000 C   0  0  0  0  0  0  0  0  0  0  0  0
    7.4070   -0.6742    0.0000 C   0  0  0  0  0  0  0  0  0  0  0  0
    7.8552    0.9988    0.0000 C   0  0  0  0  0  0  0  0  0  0  0  0
    8.1141    0.0329    0.0000 C   0  0  0  0  0  0  0  0  0  0  0  0
    8.5803    1.7466    0.0000 C   0  0  0  0  0  0  0  0  0  0  0  0
    9.1159   -0.2522    0.0000 C   0  0  0  0  0  0  0  0  0  0  0  0
    9.5885    1.4848    0.0000 C   0  0  0  0  0  0  0  0  0  0  0  0
    9.8581    0.4786    0.0000 C   0  0  0  0  0  0  0  0  0  0  0  0
    3.6730    1.2050    0.0000 H   0  0  0  0  0  0  0  0  0  0  0  0
    5.1016   -1.0461    0.0000 H   0  0  0  0  0  0  0  0  0  0  0  0
    2.8912   -1.4809    0.0000 H   0  0  0  0  0  0  0  0  0  0  0  0
    2.8478   -1.9038    0.0000 H   0  0  0  0  0  0  0  0  0  0  0  0
    5.0820   -0.1351    0.0000 H   0  0  0  0  0  0  0  0  0  0  0  0
    3.5782   -2.3125    0.0000 H   0  0  0  0  0  0  0  0  0  0  0  0
    4.4127   -2.1048    0.0000 H   0  0  0  0  0  0  0  0  0  0  0  0
    2.6383    0.2629    0.0000 H   0  0  0  0  0  0  0  0  0  0  0  0
    2.3885   -0.4327    0.0000 H   0  0  0  0  0  0  0  0  0  0  0  0
    3.3030   -1.6636    0.0000 H   0  0  0  0  0  0  0  0  0  0  0  0
    4.0430   -1.6636    0.0000 H   0  0  0  0  0  0  0  0  0  0  0  0
    2.6247    0.6848    0.0000 H   0  0  0  0  0  0  0  0  0  0  0  0
    2.2262   -0.0055    0.0000 H   0  0  0  0  0  0  0  0  0  0  0  0
    1.5188   -0.9552    0.0000 H   0  0  0  0  0  0  0  0  0  0  0  0
    1.8068   -1.9352    0.0000 H   0  0  0  0  0  0  0  0  0  0  0  0
    5.8234   -0.4695    0.0000 H   0  0  0  0  0  0  0  0  0  0  0  0
    6.3870   -1.0331    0.0000 H   0  0  0  0  0  0  0  0  0  0  0  0
    7.1513    1.8195    0.0000 H   0  0  0  0  0  0  0  0  0  0  0  0
    6.3814    1.6132    0.0000 H   0  0  0  0  0  0  0  0  0  0  0  0
    7.1449   -1.2362    0.0000 H   0  0  0  0  0  0  0  0  0  0  0  0
    7.9148   -1.0299    0.0000 H   0  0  0  0  0  0  0  0  0  0  0  0
    8.4130    2.3436    0.0000 H   0  0  0  0  0  0  0  0  0  0  0  0
    9.2695   -0.8529    0.0000 H   0  0  0  0  0  0  0  0  0  0  0  0
   10.0252    1.9249    0.0000 H   0  0  0  0  0  0  0  0  0  0  0  0
   10.4564    0.3159    0.0000 H   0  0  0  0  0  0  0  0  0  0  0  0
  1 13  2  0  0  0  0
  2 13  1  0  0  0  0
  2 14  1  0  0  0  0
  2 15  1  0  0  0  0
  3  7  1  0  0  0  0
  3  8  1  0  0  0  0
  3 10  1  0  0  0  0
  3 23  1  0  0  0  0
  4  7  1  0  0  0  0
  4  9  1  0  0  0  0
  4 11  1  0  0  0  0
  4 24  1  0  0  0  0
  5  8  1  0  0  0  0
  5  9  1  0  0  0  0
  5 12  1  0  0  0  0
  5 25  1  0  0  0  0
  6 10  1  0  0  0  0
  6 11  1  0  0  0  0
  6 12  1  0  0  0  0
  6 26  1  0  0  0  0
  7 13  1  0  0  0  0
  7 27  1  0  0  0  0
  8 34  1  0  0  0  0
  8 35  1  0  0  0  0
  9 32  1  0  0  0  0
  9 33  1  0  0  0  0
 10 30  1  0  0  0  0
 10 31  1  0  0  0  0
 11 28  1  0  0  0  0
 11 29  1  0  0  0  0
 12 36  1  0  0  0  0
 12 37  1  0  0  0  0
 14 16  1  0  0  0  0
 14 38  1  0  0  0  0
 14 39  1  0  0  0  0
 15 17  1  0  0  0  0
 15 40  1  0  0  0  0
 15 41  1  0  0  0  0
 16 18  1  0  0  0  0
 16 42  1  0  0  0  0
 16 43  1  0  0  0  0
 17 18  1  0  0  0  0
 17 19  2  0  0  0  0
 18 20  2  0  0  0  0
 19 21  1  0  0  0  0
 19 44  1  0  0  0  0
 20 22  1  0  0  0  0
 20 45  1  0  0  0  0
 21 22  2  0  0  0  0
 21 46  1  0  0  0  0
 22 47  1  0  0  0  0
M  END
> <PUBCHEM_COMPOUND_CID>
46531877

> <PUBCHEM_COMPOUND_CANONICALIZED>
1

> <PUBCHEM_CACTVS_COMPLEXITY>
431

> <PUBCHEM_CACTVS_HBOND_ACCEPTOR>
1

> <PUBCHEM_CACTVS_HBOND_DONOR>
0

> <PUBCHEM_CACTVS_ROTATABLE_BOND>
1

> <PUBCHEM_CACTVS_SUBSKEYS>
AAADceB6IAAAAAAAAAAAAAAAAAAAAAAAAAA8YMGDAAAAAACxAAAAHgAAAAAADQDBmAQwAIMAAACIAiFSEACCAAAgAAAIiAEIBIgIIDKAkRGEIAhghgCIiAcYiMCOgAAAAAAQAACAAAQAACAAAAAAAAAAAA==

> <PUBCHEM_IUPAC_OPENEYE_NAME>
2-adamantyl(3,4-dihydro-1H-isoquinolin-2-yl)methanone

> <PUBCHEM_IUPAC_CAS_NAME>
2-adamantyl(3,4-dihydro-1H-isoquinolin-2-yl)methanone

> <PUBCHEM_IUPAC_NAME>
2-adamantyl(3,4-dihydro-1H-isoquinolin-2-yl)methanone

> <PUBCHEM_IUPAC_SYSTEMATIC_NAME>
2-adamantyl(3,4-dihydro-1H-isoquinolin-2-yl)methanone

> <PUBCHEM_IUPAC_TRADITIONAL_NAME>
2-adamantyl(3,4-dihydro-1H-isoquinolin-2-yl)methanone

> <PUBCHEM_IUPAC_INCHI>
InChI=1S/C20H25NO/c22-20(21-6-5-15-3-1-2-4-16(15)12-21)19-17-8-13-7-14(10-17)11-18(19)9-13/h1-4,13-14,17-19H,5-12H2

> <PUBCHEM_IUPAC_INCHIKEY>
HJGYCHZEUCWDMJ-UHFFFAOYSA-N

> <PUBCHEM_XLOGP3>
4.3

> <PUBCHEM_EXACT_MASS>
295.193614

> <PUBCHEM_MOLECULAR_FORMULA>
C20H25NO

> <PUBCHEM_MOLECULAR_WEIGHT>
295.4186

> <PUBCHEM_OPENEYE_CAN_SMILES>
C1CN(CC2=CC=CC=C21)C(=O)C3C4CC5CC(C4)CC3C5

> <PUBCHEM_OPENEYE_ISO_SMILES>
C1CN(CC2=CC=CC=C21)C(=O)C3C4CC5CC(C4)CC3C5

> <PUBCHEM_CACTVS_TPSA>
20.3

> <PUBCHEM_MONOISOTOPIC_WEIGHT>
295.193614

> <PUBCHEM_TOTAL_CHARGE>
0

> <PUBCHEM_HEAVY_ATOM_COUNT>
22

> <PUBCHEM_ATOM_DEF_STEREO_COUNT>
0

> <PUBCHEM_ATOM_UDEF_STEREO_COUNT>
0

> <PUBCHEM_BOND_DEF_STEREO_COUNT>
0

> <PUBCHEM_BOND_UDEF_STEREO_COUNT>
0

> <PUBCHEM_ISOTOPIC_ATOM_COUNT>
0

> <PUBCHEM_COMPONENT_COUNT>
1

> <PUBCHEM_CACTVS_TAUTO_COUNT>
1

> <PUBCHEM_COORDINATE_TYPE>
1
5
255

> <PUBCHEM_BONDANNOTATIONS>
17  18  8
17  19  8
18  20  8
19  21  8
20  22  8
21  22  8

$$$$
46533083
  -OEChem-12041212082D

 40 43  0     0  0  0  0  0  0999 V2000
    6.7619    1.5350    0.0000 O   0  0  0  0  0  0  0  0  0  0  0  0
    6.7619   -0.1970    0.0000 N   0  0  0  0  0  0  0  0  0  0  0  0
    4.6783    1.4737    0.0000 N   0  0  0  0  0  0  0  0  0  0  0  0
    8.2619   -1.0630    0.0000 C   0  0  0  0  0  0  0  0  0  0  0  0
    8.2619   -2.0630    0.0000 C   0  0  0  0  0  0  0  0  0  0  0  0
    7.3958   -1.5630    0.0000 C   0  0  0  0  0  0  0  0  0  0  0  0
    7.7619   -0.1970    0.0000 C   0  0  0  0  0  0  0  0  0  0  0  0
    9.2619   -1.0630    0.0000 C   0  0  0  0  0  0  0  0  0  0  0  0
    9.7619   -1.9291    0.0000 C   0  0  0  0  0  0  0  0  0  0  0  0
    9.7619   -0.1970    0.0000 C   0  0  0  0  0  0  0  0  0  0  0  0
    6.2619    0.6690    0.0000 C   0  0  0  0  0  0  0  0  0  0  0  0
   10.7619   -1.9291    0.0000 C   0  0  0  0  0  0  0  0  0  0  0  0
   10.7619   -0.1970    0.0000 C   0  0  0  0  0  0  0  0  0  0  0  0
   11.2619   -1.0630    0.0000 C   0  0  0  0  0  0  0  0  0  0  0  0
    5.2619    0.6690    0.0000 C   0  0  0  0  0  0  0  0  0  0  0  0
    4.6783   -0.1357    0.0000 C   0  0  0  0  0  0  0  0  0  0  0  0
    3.7320    1.1690    0.0000 C   0  0  0  0  0  0  0  0  0  0  0  0
    3.7320    0.1690    0.0000 C   0  0  0  0  0  0  0  0  0  0  0  0
    2.8660    1.6690    0.0000 C   0  0  0  0  0  0  0  0  0  0  0  0
    2.8660   -0.3310    0.0000 C   0  0  0  0  0  0  0  0  0  0  0  0
    2.0000    1.1690    0.0000 C   0  0  0  0  0  0  0  0  0  0  0  0
    2.0000    0.1690    0.0000 C   0  0  0  0  0  0  0  0  0  0  0  0
    6.9973   -1.0881    0.0000 H   0  0  0  0  0  0  0  0  0  0  0  0
    6.9973   -2.0380    0.0000 H   0  0  0  0  0  0  0  0  0  0  0  0
    8.0498   -2.6457    0.0000 H   0  0  0  0  0  0  0  0  0  0  0  0
    8.8725   -2.1707    0.0000 H   0  0  0  0  0  0  0  0  0  0  0  0
    8.3445    0.0150    0.0000 H   0  0  0  0  0  0  0  0  0  0  0  0
    7.6542    0.4136    0.0000 H   0  0  0  0  0  0  0  0  0  0  0  0
    6.4519   -0.7340    0.0000 H   0  0  0  0  0  0  0  0  0  0  0  0
    9.4519   -2.4660    0.0000 H   0  0  0  0  0  0  0  0  0  0  0  0
    9.4519    0.3399    0.0000 H   0  0  0  0  0  0  0  0  0  0  0  0
   11.0719   -2.4660    0.0000 H   0  0  0  0  0  0  0  0  0  0  0  0
   11.0719    0.3399    0.0000 H   0  0  0  0  0  0  0  0  0  0  0  0
   11.8819   -1.0630    0.0000 H   0  0  0  0  0  0  0  0  0  0  0  0
    4.8709    2.0630    0.0000 H   0  0  0  0  0  0  0  0  0  0  0  0
    4.8709   -0.7251    0.0000 H   0  0  0  0  0  0  0  0  0  0  0  0
    2.8660    2.2890    0.0000 H   0  0  0  0  0  0  0  0  0  0  0  0
    2.8660   -0.9510    0.0000 H   0  0  0  0  0  0  0  0  0  0  0  0
    1.4631    1.4790    0.0000 H   0  0  0  0  0  0  0  0  0  0  0  0
    1.4631   -0.1410    0.0000 H   0  0  0  0  0  0  0  0  0  0  0  0
  1 11  2  0  0  0  0
  2  7  1  0  0  0  0
  2 11  1  0  0  0  0
  2 29  1  0  0  0  0
  3 15  1  0  0  0  0
  3 17  1  0  0  0  0
  3 35  1  0  0  0  0
  4  5  1  0  0  0  0
  4  6  1  0  0  0  0
  4  7  1  0  0  0  0
  4  8  1  0  0  0  0
  5  6  1  0  0  0  0
  5 25  1  0  0  0  0
  5 26  1  0  0  0  0
  6 23  1  0  0  0  0
  6 24  1  0  0  0  0
  7 27  1  0  0  0  0
  7 28  1  0  0  0  0
  8  9  2  0  0  0  0
  8 10  1  0  0  0  0
  9 12  1  0  0  0  0
  9 30  1  0  0  0  0
 10 13  2  0  0  0  0
 10 31  1  0  0  0  0
 11 15  1  0  0  0  0
 12 14  2  0  0  0  0
 12 32  1  0  0  0  0
 13 14  1  0  0  0  0
 13 33  1  0  0  0  0
 14 34  1  0  0  0  0
 15 16  2  0  0  0  0
 16 18  1  0  0  0  0
 16 36  1  0  0  0  0
 17 18  1  0  0  0  0
 17 19  2  0  0  0  0
 18 20  2  0  0  0  0
 19 21  1  0  0  0  0
 19 37  1  0  0  0  0
 20 22  1  0  0  0  0
 20 38  1  0  0  0  0
 21 22  2  0  0  0  0
 21 39  1  0  0  0  0
 22 40  1  0  0  0  0
M  END
> <PUBCHEM_COMPOUND_CID>
46533083

> <PUBCHEM_COMPOUND_CANONICALIZED>
1

> <PUBCHEM_CACTVS_COMPLEXITY>
412

> <PUBCHEM_CACTVS_HBOND_ACCEPTOR>
1

> <PUBCHEM_CACTVS_HBOND_DONOR>
2

> <PUBCHEM_CACTVS_ROTATABLE_BOND>
4

> <PUBCHEM_CACTVS_SUBSKEYS>
AAADceB7IAAAAAAAAAAAAAAAGAAAAWAAAAAwYAAAAAAAAFgB9AAAHgAQAAAADgjBngQwwPLJkACoAyVyVACCgCAnAiAImaG4ZNgIYPLAlbGUIQhglgDIyYcYicCfgAAAAAACAAAAAAAAAAQAAAAAAAAAAA==

> <PUBCHEM_IUPAC_OPENEYE_NAME>
N-[(1-phenylcyclopropyl)methyl]-1H-indole-2-carboxamide

> <PUBCHEM_IUPAC_CAS_NAME>
N-[(1-phenylcyclopropyl)methyl]-1H-indole-2-carboxamide

> <PUBCHEM_IUPAC_NAME>
N-[(1-phenylcyclopropyl)methyl]-1H-indole-2-carboxamide

> <PUBCHEM_IUPAC_SYSTEMATIC_NAME>
N-[(1-phenylcyclopropyl)methyl]-1H-indole-2-carboxamide

> <PUBCHEM_IUPAC_TRADITIONAL_NAME>
N-[(1-phenylcyclopropyl)methyl]-1H-indole-2-carboxamide

> <PUBCHEM_IUPAC_INCHI>
InChI=1S/C19H18N2O/c22-18(17-12-14-6-4-5-9-16(14)21-17)20-13-19(10-11-19)15-7-2-1-3-8-15/h1-9,12,21H,10-11,13H2,(H,20,22)

> <PUBCHEM_IUPAC_INCHIKEY>
IWJKLOCEUHIGJG-UHFFFAOYSA-N

> <PUBCHEM_XLOGP3>
4.3

> <PUBCHEM_EXACT_MASS>
290.141913

> <PUBCHEM_MOLECULAR_FORMULA>
C19H18N2O

> <PUBCHEM_MOLECULAR_WEIGHT>
290.35902

> <PUBCHEM_OPENEYE_CAN_SMILES>
C1CC1(CNC(=O)C2=CC3=CC=CC=C3N2)C4=CC=CC=C4

> <PUBCHEM_OPENEYE_ISO_SMILES>
C1CC1(CNC(=O)C2=CC3=CC=CC=C3N2)C4=CC=CC=C4

> <PUBCHEM_CACTVS_TPSA>
44.9

> <PUBCHEM_MONOISOTOPIC_WEIGHT>
290.141913

> <PUBCHEM_TOTAL_CHARGE>
0

> <PUBCHEM_HEAVY_ATOM_COUNT>
22

> <PUBCHEM_ATOM_DEF_STEREO_COUNT>
0

> <PUBCHEM_ATOM_UDEF_STEREO_COUNT>
0

> <PUBCHEM_BOND_DEF_STEREO_COUNT>
0

> <PUBCHEM_BOND_UDEF_STEREO_COUNT>
0

> <PUBCHEM_ISOTOPIC_ATOM_COUNT>
0

> <PUBCHEM_COMPONENT_COUNT>
1

> <PUBCHEM_CACTVS_TAUTO_COUNT>
11

> <PUBCHEM_COORDINATE_TYPE>
1
5
255

> <PUBCHEM_BONDANNOTATIONS>
10  13  8
12  14  8
13  14  8
15  16  8
16  18  8
17  18  8
17  19  8
18  20  8
19  21  8
20  22  8
21  22  8
3  15  8
3  17  8
8  10  8
8  9  8
9  12  8

$$$$
46533691
  -OEChem-12041212082D

 42 44  0     1  0  0  0  0  0999 V2000
    6.7619    1.9010    0.0000 O   0  0  0  0  0  0  0  0  0  0  0  0
    6.7619    0.1690    0.0000 N   0  0  0  0  0  0  0  0  0  0  0  0
    4.6783    1.8398    0.0000 N   0  0  0  0  0  0  0  0  0  0  0  0
    7.7619    0.1690    0.0000 C   0  0  3  0  0  0  0  0  0  0  0  0
    8.2619    1.0350    0.0000 C   0  0  0  0  0  0  0  0  0  0  0  0
    8.2619   -0.6970    0.0000 C   0  0  0  0  0  0  0  0  0  0  0  0
    9.2619    1.0350    0.0000 C   0  0  0  0  0  0  0  0  0  0  0  0
    5.2619    1.0350    0.0000 C   0  0  0  0  0  0  0  0  0  0  0  0
    6.2619    1.0350    0.0000 C   0  0  0  0  0  0  0  0  0  0  0  0
    9.7619    1.9010    0.0000 C   0  0  0  0  0  0  0  0  0  0  0  0
    3.7320    1.5350    0.0000 C   0  0  0  0  0  0  0  0  0  0  0  0
    3.7320    0.5350    0.0000 C   0  0  0  0  0  0  0  0  0  0  0  0
    7.7619   -1.5630    0.0000 C   0  0  0  0  0  0  0  0  0  0  0  0
    9.2619   -0.6970    0.0000 C   0  0  0  0  0  0  0  0  0  0  0  0
    4.6783    0.2303    0.0000 C   0  0  0  0  0  0  0  0  0  0  0  0
    8.2619   -2.4291    0.0000 C   0  0  0  0  0  0  0  0  0  0  0  0
    9.7619   -1.5630    0.0000 C   0  0  0  0  0  0  0  0  0  0  0  0
    2.8660    2.0350    0.0000 C   0  0  0  0  0  0  0  0  0  0  0  0
    2.8660    0.0350    0.0000 C   0  0  0  0  0  0  0  0  0  0  0  0
    9.2619   -2.4291    0.0000 C   0  0  0  0  0  0  0  0  0  0  0  0
    2.0000    1.5350    0.0000 C   0  0  0  0  0  0  0  0  0  0  0  0
    2.0000    0.5350    0.0000 C   0  0  0  0  0  0  0  0  0  0  0  0
    7.4519    0.7059    0.0000 H   0  0  0  0  0  0  0  0  0  0  0  0
    8.3695    1.6456    0.0000 H   0  0  0  0  0  0  0  0  0  0  0  0
    7.6793    1.2471    0.0000 H   0  0  0  0  0  0  0  0  0  0  0  0
    9.1542    0.4244    0.0000 H   0  0  0  0  0  0  0  0  0  0  0  0
    9.8445    0.8230    0.0000 H   0  0  0  0  0  0  0  0  0  0  0  0
    6.4519   -0.3679    0.0000 H   0  0  0  0  0  0  0  0  0  0  0  0
   10.2988    1.5910    0.0000 H   0  0  0  0  0  0  0  0  0  0  0  0
   10.0719    2.4380    0.0000 H   0  0  0  0  0  0  0  0  0  0  0  0
    9.2249    2.2110    0.0000 H   0  0  0  0  0  0  0  0  0  0  0  0
    7.1419   -1.5630    0.0000 H   0  0  0  0  0  0  0  0  0  0  0  0
    9.5719   -0.1601    0.0000 H   0  0  0  0  0  0  0  0  0  0  0  0
    4.8709    2.4291    0.0000 H   0  0  0  0  0  0  0  0  0  0  0  0
    4.8709   -0.3590    0.0000 H   0  0  0  0  0  0  0  0  0  0  0  0
    7.9519   -2.9660    0.0000 H   0  0  0  0  0  0  0  0  0  0  0  0
   10.3819   -1.5630    0.0000 H   0  0  0  0  0  0  0  0  0  0  0  0
    2.8660    2.6550    0.0000 H   0  0  0  0  0  0  0  0  0  0  0  0
    2.8660   -0.5850    0.0000 H   0  0  0  0  0  0  0  0  0  0  0  0
    9.5719   -2.9660    0.0000 H   0  0  0  0  0  0  0  0  0  0  0  0
    1.4631    1.8450    0.0000 H   0  0  0  0  0  0  0  0  0  0  0  0
    1.4631    0.2250    0.0000 H   0  0  0  0  0  0  0  0  0  0  0  0
  1  9  2  0  0  0  0
  2  4  1  0  0  0  0
  2  9  1  0  0  0  0
  2 28  1  0  0  0  0
  3  8  1  0  0  0  0
  3 11  1  0  0  0  0
  3 34  1  0  0  0  0
  4  5  1  0  0  0  0
  4  6  1  0  0  0  0
  4 23  1  0  0  0  0
  5  7  1  0  0  0  0
  5 24  1  0  0  0  0
  5 25  1  0  0  0  0
  6 13  2  0  0  0  0
  6 14  1  0  0  0  0
  7 10  1  0  0  0  0
  7 26  1  0  0  0  0
  7 27  1  0  0  0  0
  8  9  1  0  0  0  0
  8 15  2  0  0  0  0
 10 29  1  0  0  0  0
 10 30  1  0  0  0  0
 10 31  1  0  0  0  0
 11 12  1  0  0  0  0
 11 18  2  0  0  0  0
 12 15  1  0  0  0  0
 12 19  2  0  0  0  0
 13 16  1  0  0  0  0
 13 32  1  0  0  0  0
 14 17  2  0  0  0  0
 14 33  1  0  0  0  0
 15 35  1  0  0  0  0
 16 20  2  0  0  0  0
 16 36  1  0  0  0  0
 17 20  1  0  0  0  0
 17 37  1  0  0  0  0
 18 21  1  0  0  0  0
 18 38  1  0  0  0  0
 19 22  1  0  0  0  0
 19 39  1  0  0  0  0
 20 40  1  0  0  0  0
 21 22  2  0  0  0  0
 21 41  1  0  0  0  0
 22 42  1  0  0  0  0
M  END
> <PUBCHEM_COMPOUND_CID>
46533691

> <PUBCHEM_COMPOUND_CANONICALIZED>
1

> <PUBCHEM_CACTVS_COMPLEXITY>
364

> <PUBCHEM_CACTVS_HBOND_ACCEPTOR>
1

> <PUBCHEM_CACTVS_HBOND_DONOR>
2

> <PUBCHEM_CACTVS_ROTATABLE_BOND>
5

> <PUBCHEM_CACTVS_SUBSKEYS>
AAADceB7IAAAAAAAAAAAAAAAAAAAAWAAAAAwYAAAAAAAAFgB9AAAHgAQAAAADCjBngQywPLJkACoAyVyVACCgCAnAiAImaG4ZNgIYPLAlbGUIQhglgDIyYcYiYCeAAAAAAACAAAAAAAAAAQAAAAAAAAAAA==

> <PUBCHEM_IUPAC_OPENEYE_NAME>
N-(1-phenylbutyl)-1H-indole-2-carboxamide

> <PUBCHEM_IUPAC_CAS_NAME>
N-(1-phenylbutyl)-1H-indole-2-carboxamide

> <PUBCHEM_IUPAC_NAME>
N-(1-phenylbutyl)-1H-indole-2-carboxamide

> <PUBCHEM_IUPAC_SYSTEMATIC_NAME>
N-(1-phenylbutyl)-1H-indole-2-carboxamide

> <PUBCHEM_IUPAC_TRADITIONAL_NAME>
N-(1-phenylbutyl)-1H-indole-2-carboxamide

> <PUBCHEM_IUPAC_INCHI>
InChI=1S/C19H20N2O/c1-2-8-16(14-9-4-3-5-10-14)21-19(22)18-13-15-11-6-7-12-17(15)20-18/h3-7,9-13,16,20H,2,8H2,1H3,(H,21,22)

> <PUBCHEM_IUPAC_INCHIKEY>
LLMBTCXCKSWNQU-UHFFFAOYSA-N

> <PUBCHEM_XLOGP3>
4.8

> <PUBCHEM_EXACT_MASS>
292.157563

> <PUBCHEM_MOLECULAR_FORMULA>
C19H20N2O

> <PUBCHEM_MOLECULAR_WEIGHT>
292.3749

> <PUBCHEM_OPENEYE_CAN_SMILES>
CCCC(C1=CC=CC=C1)NC(=O)C2=CC3=CC=CC=C3N2

> <PUBCHEM_OPENEYE_ISO_SMILES>
CCCC(C1=CC=CC=C1)NC(=O)C2=CC3=CC=CC=C3N2

> <PUBCHEM_CACTVS_TPSA>
44.9

> <PUBCHEM_MONOISOTOPIC_WEIGHT>
292.157563

> <PUBCHEM_TOTAL_CHARGE>
0

> <PUBCHEM_HEAVY_ATOM_COUNT>
22

> <PUBCHEM_ATOM_DEF_STEREO_COUNT>
0

> <PUBCHEM_ATOM_UDEF_STEREO_COUNT>
1

> <PUBCHEM_BOND_DEF_STEREO_COUNT>
0

> <PUBCHEM_BOND_UDEF_STEREO_COUNT>
0

> <PUBCHEM_ISOTOPIC_ATOM_COUNT>
0

> <PUBCHEM_COMPONENT_COUNT>
1

> <PUBCHEM_CACTVS_TAUTO_COUNT>
11

> <PUBCHEM_COORDINATE_TYPE>
1
5
255

> <PUBCHEM_BONDANNOTATIONS>
11  12  8
11  18  8
12  15  8
12  19  8
13  16  8
14  17  8
16  20  8
17  20  8
18  21  8
19  22  8
21  22  8
3  11  8
3  8  8
4  5  3
6  13  8
6  14  8
8  15  8

$$$$
46538165
  -OEChem-12041212092D

 38 39  0     0  0  0  0  0  0999 V2000
    6.7619    1.9010    0.0000 O   0  0  0  0  0  0  0  0  0  0  0  0
    6.7619    0.1690    0.0000 N   0  0  0  0  0  0  0  0  0  0  0  0
    4.6783    1.8398    0.0000 N   0  0  0  0  0  0  0  0  0  0  0  0
    9.2619   -0.6970    0.0000 C   0  0  0  0  0  0  0  0  0  0  0  0
    8.2619   -0.6970    0.0000 C   0  0  0  0  0  0  0  0  0  0  0  0
    9.7619   -1.5630    0.0000 C   0  0  0  0  0  0  0  0  0  0  0  0
    7.7619    0.1690    0.0000 C   0  0  0  0  0  0  0  0  0  0  0  0
   10.7619   -1.5630    0.0000 C   0  0  0  0  0  0  0  0  0  0  0  0
    5.2619    1.0350    0.0000 C   0  0  0  0  0  0  0  0  0  0  0  0
    3.7320    1.5350    0.0000 C   0  0  0  0  0  0  0  0  0  0  0  0
    3.7320    0.5350    0.0000 C   0  0  0  0  0  0  0  0  0  0  0  0
    6.2619    1.0350    0.0000 C   0  0  0  0  0  0  0  0  0  0  0  0
   11.2619   -2.4291    0.0000 C   0  0  0  0  0  0  0  0  0  0  0  0
    4.6783    0.2303    0.0000 C   0  0  0  0  0  0  0  0  0  0  0  0
    2.8660    2.0350    0.0000 C   0  0  0  0  0  0  0  0  0  0  0  0
    2.8660    0.0350    0.0000 C   0  0  0  0  0  0  0  0  0  0  0  0
    2.0000    1.5350    0.0000 C   0  0  0  0  0  0  0  0  0  0  0  0
    2.0000    0.5350    0.0000 C   0  0  0  0  0  0  0  0  0  0  0  0
    9.8445   -0.4850    0.0000 H   0  0  0  0  0  0  0  0  0  0  0  0
    9.1542   -0.0864    0.0000 H   0  0  0  0  0  0  0  0  0  0  0  0
    7.6793   -0.9091    0.0000 H   0  0  0  0  0  0  0  0  0  0  0  0
    8.3695   -1.3076    0.0000 H   0  0  0  0  0  0  0  0  0  0  0  0
    9.1793   -1.7751    0.0000 H   0  0  0  0  0  0  0  0  0  0  0  0
    9.8695   -2.1736    0.0000 H   0  0  0  0  0  0  0  0  0  0  0  0
    8.3445    0.3811    0.0000 H   0  0  0  0  0  0  0  0  0  0  0  0
    7.6542    0.7796    0.0000 H   0  0  0  0  0  0  0  0  0  0  0  0
   11.3445   -1.3510    0.0000 H   0  0  0  0  0  0  0  0  0  0  0  0
   10.6542   -0.9525    0.0000 H   0  0  0  0  0  0  0  0  0  0  0  0
    6.4519   -0.3679    0.0000 H   0  0  0  0  0  0  0  0  0  0  0  0
   10.7249   -2.7391    0.0000 H   0  0  0  0  0  0  0  0  0  0  0  0
   11.5719   -2.9660    0.0000 H   0  0  0  0  0  0  0  0  0  0  0  0
   11.7988   -2.1191    0.0000 H   0  0  0  0  0  0  0  0  0  0  0  0
    4.8709    2.4291    0.0000 H   0  0  0  0  0  0  0  0  0  0  0  0
    4.8709   -0.3590    0.0000 H   0  0  0  0  0  0  0  0  0  0  0  0
    2.8660    2.6550    0.0000 H   0  0  0  0  0  0  0  0  0  0  0  0
    2.8660   -0.5850    0.0000 H   0  0  0  0  0  0  0  0  0  0  0  0
    1.4631    1.8450    0.0000 H   0  0  0  0  0  0  0  0  0  0  0  0
    1.4631    0.2250    0.0000 H   0  0  0  0  0  0  0  0  0  0  0  0
  1 12  2  0  0  0  0
  2  7  1  0  0  0  0
  2 12  1  0  0  0  0
  2 29  1  0  0  0  0
  3  9  1  0  0  0  0
  3 10  1  0  0  0  0
  3 33  1  0  0  0  0
  4  5  1  0  0  0  0
  4  6  1  0  0  0  0
  4 19  1  0  0  0  0
  4 20  1  0  0  0  0
  5  7  1  0  0  0  0
  5 21  1  0  0  0  0
  5 22  1  0  0  0  0
  6  8  1  0  0  0  0
  6 23  1  0  0  0  0
  6 24  1  0  0  0  0
  7 25  1  0  0  0  0
  7 26  1  0  0  0  0
  8 13  1  0  0  0  0
  8 27  1  0  0  0  0
  8 28  1  0  0  0  0
  9 12  1  0  0  0  0
  9 14  2  0  0  0  0
 10 11  1  0  0  0  0
 10 15  2  0  0  0  0
 11 14  1  0  0  0  0
 11 16  2  0  0  0  0
 13 30  1  0  0  0  0
 13 31  1  0  0  0  0
 13 32  1  0  0  0  0
 14 34  1  0  0  0  0
 15 17  1  0  0  0  0
 15 35  1  0  0  0  0
 16 18  1  0  0  0  0
 16 36  1  0  0  0  0
 17 18  2  0  0  0  0
 17 37  1  0  0  0  0
 18 38  1  0  0  0  0
M  END
> <PUBCHEM_COMPOUND_CID>
46538165

> <PUBCHEM_COMPOUND_CANONICALIZED>
1

> <PUBCHEM_CACTVS_COMPLEXITY>
267

> <PUBCHEM_CACTVS_HBOND_ACCEPTOR>
1

> <PUBCHEM_CACTVS_HBOND_DONOR>
2

> <PUBCHEM_CACTVS_ROTATABLE_BOND>
6

> <PUBCHEM_CACTVS_SUBSKEYS>
AAADceBzIAAAAAAAAAAAAAAAAAAAAWAAAAAwAAAAAAAAAFgB8AAAHgAQAAAADAjBngQywPLJkACoAyVyVACCgCAnAiAImaG4ZNgIYPLAlbGUIQhglgDIyYcYiYCeAAAAAAACAAAAAAAAAAQAAAAAAAAAAA==

> <PUBCHEM_IUPAC_OPENEYE_NAME>
N-hexyl-1H-indole-2-carboxamide

> <PUBCHEM_IUPAC_CAS_NAME>
N-hexyl-1H-indole-2-carboxamide

> <PUBCHEM_IUPAC_NAME>
N-hexyl-1H-indole-2-carboxamide

> <PUBCHEM_IUPAC_SYSTEMATIC_NAME>
N-hexyl-1H-indole-2-carboxamide

> <PUBCHEM_IUPAC_TRADITIONAL_NAME>
N-hexyl-1H-indole-2-carboxamide

> <PUBCHEM_IUPAC_INCHI>
InChI=1S/C15H20N2O/c1-2-3-4-7-10-16-15(18)14-11-12-8-5-6-9-13(12)17-14/h5-6,8-9,11,17H,2-4,7,10H2,1H3,(H,16,18)

> <PUBCHEM_IUPAC_INCHIKEY>
XNFHAWNTWDICSC-UHFFFAOYSA-N

> <PUBCHEM_XLOGP3>
4.4

> <PUBCHEM_EXACT_MASS>
244.157563

> <PUBCHEM_MOLECULAR_FORMULA>
C15H20N2O

> <PUBCHEM_MOLECULAR_WEIGHT>
244.3321

> <PUBCHEM_OPENEYE_CAN_SMILES>
CCCCCCNC(=O)C1=CC2=CC=CC=C2N1

> <PUBCHEM_OPENEYE_ISO_SMILES>
CCCCCCNC(=O)C1=CC2=CC=CC=C2N1

> <PUBCHEM_CACTVS_TPSA>
44.9

> <PUBCHEM_MONOISOTOPIC_WEIGHT>
244.157563

> <PUBCHEM_TOTAL_CHARGE>
0

> <PUBCHEM_HEAVY_ATOM_COUNT>
18

> <PUBCHEM_ATOM_DEF_STEREO_COUNT>
0

> <PUBCHEM_ATOM_UDEF_STEREO_COUNT>
0

> <PUBCHEM_BOND_DEF_STEREO_COUNT>
0

> <PUBCHEM_BOND_UDEF_STEREO_COUNT>
0

> <PUBCHEM_ISOTOPIC_ATOM_COUNT>
0

> <PUBCHEM_COMPONENT_COUNT>
1

> <PUBCHEM_CACTVS_TAUTO_COUNT>
11

> <PUBCHEM_COORDINATE_TYPE>
1
5
255

> <PUBCHEM_BONDANNOTATIONS>
10  11  8
10  15  8
11  14  8
11  16  8
15  17  8
16  18  8
17  18  8
3  10  8
3  9  8
9  14  8

$$$$
46540006
  -OEChem-12041212092D

 43 46  0     1  0  0  0  0  0999 V2000
    6.6353   -0.6094    0.0000 O   0  0  0  0  0  0  0  0  0  0  0  0
    6.2781    1.0854    0.0000 N   0  0  0  0  0  0  0  0  0  0  0  0
    4.6783   -2.6313    0.0000 N   0  0  0  0  0  0  0  0  0  0  0  0
    7.5673    2.2421    0.0000 C   0  0  0  0  0  0  0  0  0  0  0  0
    8.3116    2.9100    0.0000 C   0  0  0  0  0  0  0  0  0  0  0  0
    7.3610    3.2206    0.0000 C   0  0  0  0  0  0  0  0  0  0  0  0
    7.2566    1.2916    0.0000 C   0  0  3  0  0  0  0  0  0  0  0  0
    7.9244    0.5473    0.0000 C   0  0  0  0  0  0  0  0  0  0  0  0
    5.9674    0.1349    0.0000 C   0  0  0  0  0  0  0  0  0  0  0  0
    7.6138   -0.4032    0.0000 C   0  0  0  0  0  0  0  0  0  0  0  0
    8.9030    0.7535    0.0000 C   0  0  0  0  0  0  0  0  0  0  0  0
    4.9889   -0.0713    0.0000 C   0  0  0  0  0  0  0  0  0  0  0  0
    4.6783   -1.0219    0.0000 C   0  0  0  0  0  0  0  0  0  0  0  0
    8.2816   -1.1475    0.0000 C   0  0  0  0  0  0  0  0  0  0  0  0
    9.5708    0.0092    0.0000 C   0  0  0  0  0  0  0  0  0  0  0  0
    3.7320   -1.3266    0.0000 C   0  0  0  0  0  0  0  0  0  0  0  0
    9.2601   -0.9413    0.0000 C   0  0  0  0  0  0  0  0  0  0  0  0
    5.2619   -1.8266    0.0000 C   0  0  0  0  0  0  0  0  0  0  0  0
    3.7320   -2.3266    0.0000 C   0  0  0  0  0  0  0  0  0  0  0  0
    2.8660   -0.8266    0.0000 C   0  0  0  0  0  0  0  0  0  0  0  0
    2.8660   -2.8266    0.0000 C   0  0  0  0  0  0  0  0  0  0  0  0
    2.0000   -1.3266    0.0000 C   0  0  0  0  0  0  0  0  0  0  0  0
    2.0000   -2.3266    0.0000 C   0  0  0  0  0  0  0  0  0  0  0  0
    6.9482    2.2757    0.0000 H   0  0  0  0  0  0  0  0  0  0  0  0
    7.4484    3.8345    0.0000 H   0  0  0  0  0  0  0  0  0  0  0  0
    6.7414    3.2001    0.0000 H   0  0  0  0  0  0  0  0  0  0  0  0
    8.7995    2.5274    0.0000 H   0  0  0  0  0  0  0  0  0  0  0  0
    8.6036    3.4569    0.0000 H   0  0  0  0  0  0  0  0  0  0  0  0
    7.0640    0.7023    0.0000 H   0  0  0  0  0  0  0  0  0  0  0  0
    5.8640    1.5469    0.0000 H   0  0  0  0  0  0  0  0  0  0  0  0
    7.0071   -0.5311    0.0000 H   0  0  0  0  0  0  0  0  0  0  0  0
    9.0956    1.3429    0.0000 H   0  0  0  0  0  0  0  0  0  0  0  0
    4.9684    0.5483    0.0000 H   0  0  0  0  0  0  0  0  0  0  0  0
    4.3751    0.0160    0.0000 H   0  0  0  0  0  0  0  0  0  0  0  0
    8.0890   -1.7368    0.0000 H   0  0  0  0  0  0  0  0  0  0  0  0
   10.1775    0.1371    0.0000 H   0  0  0  0  0  0  0  0  0  0  0  0
    9.6742   -1.4028    0.0000 H   0  0  0  0  0  0  0  0  0  0  0  0
    5.8819   -1.8266    0.0000 H   0  0  0  0  0  0  0  0  0  0  0  0
    4.8709   -3.2206    0.0000 H   0  0  0  0  0  0  0  0  0  0  0  0
    2.8660   -0.2066    0.0000 H   0  0  0  0  0  0  0  0  0  0  0  0
    2.8660   -3.4466    0.0000 H   0  0  0  0  0  0  0  0  0  0  0  0
    1.4631   -1.0166    0.0000 H   0  0  0  0  0  0  0  0  0  0  0  0
    1.4631   -2.6366    0.0000 H   0  0  0  0  0  0  0  0  0  0  0  0
  1  9  2  0  0  0  0
  2  7  1  0  0  0  0
  2  9  1  0  0  0  0
  2 30  1  0  0  0  0
  3 18  1  0  0  0  0
  3 19  1  0  0  0  0
  3 39  1  0  0  0  0
  4  5  1  0  0  0  0
  4  6  1  0  0  0  0
  4  7  1  0  0  0  0
  4 24  1  0  0  0  0
  5  6  1  0  0  0  0
  5 27  1  0  0  0  0
  5 28  1  0  0  0  0
  6 25  1  0  0  0  0
  6 26  1  0  0  0  0
  7  8  1  0  0  0  0
  7 29  1  0  0  0  0
  8 10  2  0  0  0  0
  8 11  1  0  0  0  0
  9 12  1  0  0  0  0
 10 14  1  0  0  0  0
 10 31  1  0  0  0  0
 11 15  2  0  0  0  0
 11 32  1  0  0  0  0
 12 13  1  0  0  0  0
 12 33  1  0  0  0  0
 12 34  1  0  0  0  0
 13 16  1  0  0  0  0
 13 18  2  0  0  0  0
 14 17  2  0  0  0  0
 14 35  1  0  0  0  0
 15 17  1  0  0  0  0
 15 36  1  0  0  0  0
 16 19  1  0  0  0  0
 16 20  2  0  0  0  0
 17 37  1  0  0  0  0
 18 38  1  0  0  0  0
 19 21  2  0  0  0  0
 20 22  1  0  0  0  0
 20 40  1  0  0  0  0
 21 23  1  0  0  0  0
 21 41  1  0  0  0  0
 22 23  2  0  0  0  0
 22 42  1  0  0  0  0
 23 43  1  0  0  0  0
M  END
> <PUBCHEM_COMPOUND_CID>
46540006

> <PUBCHEM_COMPOUND_CANONICALIZED>
1

> <PUBCHEM_CACTVS_COMPLEXITY>
414

> <PUBCHEM_CACTVS_HBOND_ACCEPTOR>
1

> <PUBCHEM_CACTVS_HBOND_DONOR>
2

> <PUBCHEM_CACTVS_ROTATABLE_BOND>
5

> <PUBCHEM_CACTVS_SUBSKEYS>
AAADceB7IAAAAAAAAAAAAAAAGAAAAWAAAAAwYAAAAAAAAFgB9AAAHgAQAAAADSjBngQ8wPLJkACoAzV3VACCgCAxAiAI2aE4ZJgIIPLAlZGEIAhglgDIyAccicCegAAAAAACAAAAAAAAAAQAAAAAAAAAAA==

> <PUBCHEM_IUPAC_OPENEYE_NAME>
N-[cyclopropyl(phenyl)methyl]-2-(1H-indol-3-yl)acetamide

> <PUBCHEM_IUPAC_CAS_NAME>
N-[cyclopropyl(phenyl)methyl]-2-(1H-indol-3-yl)acetamide

> <PUBCHEM_IUPAC_NAME>
N-[cyclopropyl(phenyl)methyl]-2-(1H-indol-3-yl)acetamide

> <PUBCHEM_IUPAC_SYSTEMATIC_NAME>
N-[cyclopropyl(phenyl)methyl]-2-(1H-indol-3-yl)ethanamide

> <PUBCHEM_IUPAC_TRADITIONAL_NAME>
N-[cyclopropyl(phenyl)methyl]-2-(1H-indol-3-yl)acetamide

> <PUBCHEM_IUPAC_INCHI>
InChI=1S/C20H20N2O/c23-19(12-16-13-21-18-9-5-4-8-17(16)18)22-20(15-10-11-15)14-6-2-1-3-7-14/h1-9,13,15,20-21H,10-12H2,(H,22,23)

> <PUBCHEM_IUPAC_INCHIKEY>
GNWOGLNPVOBZJM-UHFFFAOYSA-N

> <PUBCHEM_XLOGP3>
3.4

> <PUBCHEM_EXACT_MASS>
304.157563

> <PUBCHEM_MOLECULAR_FORMULA>
C20H20N2O

> <PUBCHEM_MOLECULAR_WEIGHT>
304.3856

> <PUBCHEM_OPENEYE_CAN_SMILES>
C1CC1C(C2=CC=CC=C2)NC(=O)CC3=CNC4=CC=CC=C43

> <PUBCHEM_OPENEYE_ISO_SMILES>
C1CC1C(C2=CC=CC=C2)NC(=O)CC3=CNC4=CC=CC=C43

> <PUBCHEM_CACTVS_TPSA>
44.9

> <PUBCHEM_MONOISOTOPIC_WEIGHT>
304.157563

> <PUBCHEM_TOTAL_CHARGE>
0

> <PUBCHEM_HEAVY_ATOM_COUNT>
23

> <PUBCHEM_ATOM_DEF_STEREO_COUNT>
0

> <PUBCHEM_ATOM_UDEF_STEREO_COUNT>
1

> <PUBCHEM_BOND_DEF_STEREO_COUNT>
0

> <PUBCHEM_BOND_UDEF_STEREO_COUNT>
0

> <PUBCHEM_ISOTOPIC_ATOM_COUNT>
0

> <PUBCHEM_COMPONENT_COUNT>
1

> <PUBCHEM_CACTVS_TAUTO_COUNT>
2

> <PUBCHEM_COORDINATE_TYPE>
1
5
255

> <PUBCHEM_BONDANNOTATIONS>
10  14  8
11  15  8
13  16  8
13  18  8
14  17  8
15  17  8
16  19  8
16  20  8
19  21  8
7  2  3
20  22  8
21  23  8
22  23  8
3  18  8
3  19  8
8  10  8
8  11  8

$$$$
