23476810
  -OEChem-05231305142D

 35 37  0     0  0  0  0  0  0999 V2000
    4.6783   -2.8089    0.0000 N   0  0  0  0  0  0  0  0  0  0  0  0
    5.9674   -0.0427    0.0000 N   0  0  0  0  0  0  0  0  0  0  0  0
    3.7320   -2.5042    0.0000 C   0  0  0  0  0  0  0  0  0  0  0  0
    3.7320   -1.5042    0.0000 C   0  0  0  0  0  0  0  0  0  0  0  0
    4.6783   -1.1994    0.0000 C   0  0  0  0  0  0  0  0  0  0  0  0
    5.2619   -2.0042    0.0000 C   0  0  0  0  0  0  0  0  0  0  0  0
    2.8660   -3.0042    0.0000 C   0  0  0  0  0  0  0  0  0  0  0  0
    2.8660   -1.0042    0.0000 C   0  0  0  0  0  0  0  0  0  0  0  0
    4.9889   -3.7594    0.0000 C   0  0  0  0  0  0  0  0  0  0  0  0
    4.9889   -0.2489    0.0000 C   0  0  0  0  0  0  0  0  0  0  0  0
    2.0000   -2.5042    0.0000 C   0  0  0  0  0  0  0  0  0  0  0  0
    2.0000   -1.5042    0.0000 C   0  0  0  0  0  0  0  0  0  0  0  0
    6.2781    0.9078    0.0000 C   0  0  0  0  0  0  0  0  0  0  0  0
    6.8994    2.8089    0.0000 C   0  0  0  0  0  0  0  0  0  0  0  0
    7.2566    1.1141    0.0000 C   0  0  0  0  0  0  0  0  0  0  0  0
    5.6103    1.6521    0.0000 C   0  0  0  0  0  0  0  0  0  0  0  0
    7.5673    2.0646    0.0000 C   0  0  0  0  0  0  0  0  0  0  0  0
    5.9209    2.6027    0.0000 C   0  0  0  0  0  0  0  0  0  0  0  0
    7.2101    3.7594    0.0000 C   0  0  0  0  0  0  0  0  0  0  0  0
    5.8819   -2.0042    0.0000 H   0  0  0  0  0  0  0  0  0  0  0  0
    2.8660   -3.6242    0.0000 H   0  0  0  0  0  0  0  0  0  0  0  0
    2.8660   -0.3842    0.0000 H   0  0  0  0  0  0  0  0  0  0  0  0
    4.3996   -3.9520    0.0000 H   0  0  0  0  0  0  0  0  0  0  0  0
    5.1815   -4.3487    0.0000 H   0  0  0  0  0  0  0  0  0  0  0  0
    5.5783   -3.5668    0.0000 H   0  0  0  0  0  0  0  0  0  0  0  0
    4.5749    0.2126    0.0000 H   0  0  0  0  0  0  0  0  0  0  0  0
    1.4631   -2.8142    0.0000 H   0  0  0  0  0  0  0  0  0  0  0  0
    1.4631   -1.1942    0.0000 H   0  0  0  0  0  0  0  0  0  0  0  0
    7.6707    0.6526    0.0000 H   0  0  0  0  0  0  0  0  0  0  0  0
    5.0036    1.5243    0.0000 H   0  0  0  0  0  0  0  0  0  0  0  0
    8.1739    2.1924    0.0000 H   0  0  0  0  0  0  0  0  0  0  0  0
    5.5069    3.0641    0.0000 H   0  0  0  0  0  0  0  0  0  0  0  0
    7.7994    3.5668    0.0000 H   0  0  0  0  0  0  0  0  0  0  0  0
    7.4027    4.3487    0.0000 H   0  0  0  0  0  0  0  0  0  0  0  0
    6.6208    3.9520    0.0000 H   0  0  0  0  0  0  0  0  0  0  0  0
  1  3  1  0  0  0  0
  1  6  1  0  0  0  0
  1  9  1  0  0  0  0
  2 10  2  0  0  0  0
  2 13  1  0  0  0  0
  3  4  1  0  0  0  0
  3  7  2  0  0  0  0
  4  5  1  0  0  0  0
  4  8  2  0  0  0  0
  5  6  2  0  0  0  0
  5 10  1  0  0  0  0
  6 20  1  0  0  0  0
  7 11  1  0  0  0  0
  7 21  1  0  0  0  0
  8 12  1  0  0  0  0
  8 22  1  0  0  0  0
  9 23  1  0  0  0  0
  9 24  1  0  0  0  0
  9 25  1  0  0  0  0
 10 26  1  0  0  0  0
 11 12  2  0  0  0  0
 11 27  1  0  0  0  0
 12 28  1  0  0  0  0
 13 15  2  0  0  0  0
 13 16  1  0  0  0  0
 14 17  2  0  0  0  0
 14 18  1  0  0  0  0
 14 19  1  0  0  0  0
 15 17  1  0  0  0  0
 15 29  1  0  0  0  0
 16 18  2  0  0  0  0
 16 30  1  0  0  0  0
 17 31  1  0  0  0  0
 18 32  1  0  0  0  0
 19 33  1  0  0  0  0
 19 34  1  0  0  0  0
 19 35  1  0  0  0  0
M  END
> <PUBCHEM_COMPOUND_CID>
23476810

> <PUBCHEM_COMPOUND_CANONICALIZED>
1

> <PUBCHEM_CACTVS_COMPLEXITY>
317

> <PUBCHEM_CACTVS_HBOND_ACCEPTOR>
1

> <PUBCHEM_CACTVS_HBOND_DONOR>
0

> <PUBCHEM_CACTVS_ROTATABLE_BOND>
2

> <PUBCHEM_CACTVS_SUBSKEYS>
AAADceB7AAAAAAAAAAAAAAAAAAAAAWAAAAAwYAAAAAAAAFgB9AAAHAAAAAAADAjBHgQ+wPMMEACgAzRnRACCgCAxAiAI2CA4ZJgIIOLAkZGEIAhggADIyAcQgMAOiAAAAAACAAAQAAAAAAQAAAAAAAAAAA==

> <PUBCHEM_IUPAC_OPENEYE_NAME>
1-(1-methylindol-3-yl)-N-(p-tolyl)methanimine

> <PUBCHEM_IUPAC_CAS_NAME>
1-(1-methyl-3-indolyl)-N-(4-methylphenyl)methanimine

> <PUBCHEM_IUPAC_NAME>
1-(1-methylindol-3-yl)-N-(4-methylphenyl)methanimine

> <PUBCHEM_IUPAC_SYSTEMATIC_NAME>
1-(1-methylindol-3-yl)-N-(4-methylphenyl)methanimine

> <PUBCHEM_IUPAC_TRADITIONAL_NAME>
(1-methylindol-3-yl)methylene-(p-tolyl)amine

> <PUBCHEM_IUPAC_INCHI>
InChI=1S/C17H16N2/c1-13-7-9-15(10-8-13)18-11-14-12-19(2)17-6-4-3-5-16(14)17/h3-12H,1-2H3

> <PUBCHEM_IUPAC_INCHIKEY>
IWHWQYPNKVITGK-UHFFFAOYSA-N

> <PUBCHEM_XLOGP3>
3.9

> <PUBCHEM_EXACT_MASS>
248.131349

> <PUBCHEM_MOLECULAR_FORMULA>
C17H16N2

> <PUBCHEM_MOLECULAR_WEIGHT>
248.32234

> <PUBCHEM_OPENEYE_CAN_SMILES>
CC1=CC=C(C=C1)N=CC2=CN(C3=CC=CC=C32)C

> <PUBCHEM_OPENEYE_ISO_SMILES>
CC1=CC=C(C=C1)N=CC2=CN(C3=CC=CC=C32)C

> <PUBCHEM_CACTVS_TPSA>
17.3

> <PUBCHEM_MONOISOTOPIC_WEIGHT>
248.131349

> <PUBCHEM_TOTAL_CHARGE>
0

> <PUBCHEM_HEAVY_ATOM_COUNT>
19

> <PUBCHEM_ATOM_DEF_STEREO_COUNT>
0

> <PUBCHEM_ATOM_UDEF_STEREO_COUNT>
0

> <PUBCHEM_BOND_DEF_STEREO_COUNT>
0

> <PUBCHEM_BOND_UDEF_STEREO_COUNT>
0

> <PUBCHEM_ISOTOPIC_ATOM_COUNT>
0

> <PUBCHEM_COMPONENT_COUNT>
1

> <PUBCHEM_CACTVS_TAUTO_COUNT>
1

> <PUBCHEM_COORDINATE_TYPE>
1
5
255

> <PUBCHEM_BONDANNOTATIONS>
1  3  8
1  6  8
11  12  8
13  15  8
13  16  8
14  17  8
14  18  8
15  17  8
16  18  8
3  4  8
3  7  8
4  5  8
4  8  8
5  6  8
7  11  8
8  12  8

$$$$
23496276
  -OEChem-05231305152D

 27 28  0     1  0  0  0  0  0999 V2000
    7.2566    2.1285    0.0000 O   0  0  0  0  0  0  0  0  0  0  0  0
    4.6783   -1.7944    0.0000 N   0  0  0  0  0  0  0  0  0  0  0  0
    4.9889    0.7656    0.0000 C   0  0  3  0  0  0  0  0  0  0  0  0
    4.6783   -0.1850    0.0000 C   0  0  0  0  0  0  0  0  0  0  0  0
    3.7320   -0.4897    0.0000 C   0  0  0  0  0  0  0  0  0  0  0  0
    5.9674    0.9718    0.0000 C   0  0  0  0  0  0  0  0  0  0  0  0
    3.7320   -1.4897    0.0000 C   0  0  0  0  0  0  0  0  0  0  0  0
    5.2619   -0.9897    0.0000 C   0  0  0  0  0  0  0  0  0  0  0  0
    4.3211    1.5098    0.0000 C   0  0  0  0  0  0  0  0  0  0  0  0
    2.8660    0.0103    0.0000 C   0  0  0  0  0  0  0  0  0  0  0  0
    2.8660   -1.9897    0.0000 C   0  0  0  0  0  0  0  0  0  0  0  0
    2.0000   -0.4897    0.0000 C   0  0  0  0  0  0  0  0  0  0  0  0
    6.2781    1.9223    0.0000 C   0  0  0  0  0  0  0  0  0  0  0  0
    2.0000   -1.4897    0.0000 C   0  0  0  0  0  0  0  0  0  0  0  0
    5.1815    1.3549    0.0000 H   0  0  0  0  0  0  0  0  0  0  0  0
    5.9880    0.3521    0.0000 H   0  0  0  0  0  0  0  0  0  0  0  0
    6.5812    0.8844    0.0000 H   0  0  0  0  0  0  0  0  0  0  0  0
    5.8819   -0.9897    0.0000 H   0  0  0  0  0  0  0  0  0  0  0  0
    4.7826    1.9239    0.0000 H   0  0  0  0  0  0  0  0  0  0  0  0
    3.9070    1.9713    0.0000 H   0  0  0  0  0  0  0  0  0  0  0  0
    3.8596    1.0958    0.0000 H   0  0  0  0  0  0  0  0  0  0  0  0
    4.8709   -2.3838    0.0000 H   0  0  0  0  0  0  0  0  0  0  0  0
    2.8660    0.6303    0.0000 H   0  0  0  0  0  0  0  0  0  0  0  0
    2.8660   -2.6097    0.0000 H   0  0  0  0  0  0  0  0  0  0  0  0
    1.4631   -0.1797    0.0000 H   0  0  0  0  0  0  0  0  0  0  0  0
    5.8640    2.3838    0.0000 H   0  0  0  0  0  0  0  0  0  0  0  0
    1.4631   -1.7997    0.0000 H   0  0  0  0  0  0  0  0  0  0  0  0
  1 13  2  0  0  0  0
  2  7  1  0  0  0  0
  2  8  1  0  0  0  0
  2 22  1  0  0  0  0
  3  4  1  0  0  0  0
  3  6  1  0  0  0  0
  3  9  1  0  0  0  0
  3 15  1  0  0  0  0
  4  5  1  0  0  0  0
  4  8  2  0  0  0  0
  5  7  1  0  0  0  0
  5 10  2  0  0  0  0
  6 13  1  0  0  0  0
  6 16  1  0  0  0  0
  6 17  1  0  0  0  0
  7 11  2  0  0  0  0
  8 18  1  0  0  0  0
  9 19  1  0  0  0  0
  9 20  1  0  0  0  0
  9 21  1  0  0  0  0
 10 12  1  0  0  0  0
 10 23  1  0  0  0  0
 11 14  1  0  0  0  0
 11 24  1  0  0  0  0
 12 14  2  0  0  0  0
 12 25  1  0  0  0  0
 13 26  1  0  0  0  0
 14 27  1  0  0  0  0
M  END
> <PUBCHEM_COMPOUND_CID>
23496276

> <PUBCHEM_COMPOUND_CANONICALIZED>
1

> <PUBCHEM_CACTVS_COMPLEXITY>
205

> <PUBCHEM_CACTVS_HBOND_ACCEPTOR>
1

> <PUBCHEM_CACTVS_HBOND_DONOR>
1

> <PUBCHEM_CACTVS_ROTATABLE_BOND>
3

> <PUBCHEM_CACTVS_SUBSKEYS>
AAADccByIAAAAAAAAAAAAAAAAAAAAWAAAAAwAAAAAAAAAFgB8AAAHgAQAAAADQjhngY+wPLJkACoAzx3xACCgCAxAiAI2aE4ZJgIIPLAkZGEIAhgkADIyAcYicCOgAAAAAACAAAAAAAAAAQAAAAAAAAAAA==

> <PUBCHEM_IUPAC_OPENEYE_NAME>
3-(1H-indol-3-yl)butanal

> <PUBCHEM_IUPAC_CAS_NAME>
3-(1H-indol-3-yl)butanal

> <PUBCHEM_IUPAC_NAME>
3-(1H-indol-3-yl)butanal

> <PUBCHEM_IUPAC_SYSTEMATIC_NAME>
3-(1H-indol-3-yl)butanal

> <PUBCHEM_IUPAC_TRADITIONAL_NAME>
3-(1H-indol-3-yl)butyraldehyde

> <PUBCHEM_IUPAC_INCHI>
InChI=1S/C12H13NO/c1-9(6-7-14)11-8-13-12-5-3-2-4-10(11)12/h2-5,7-9,13H,6H2,1H3

> <PUBCHEM_IUPAC_INCHIKEY>
MLGJCWGLXXAKQX-UHFFFAOYSA-N

> <PUBCHEM_XLOGP3>
2.3

> <PUBCHEM_EXACT_MASS>
187.099714

> <PUBCHEM_MOLECULAR_FORMULA>
C12H13NO

> <PUBCHEM_MOLECULAR_WEIGHT>
187.23772

> <PUBCHEM_OPENEYE_CAN_SMILES>
CC(CC=O)C1=CNC2=CC=CC=C21

> <PUBCHEM_OPENEYE_ISO_SMILES>
CC(CC=O)C1=CNC2=CC=CC=C21

> <PUBCHEM_CACTVS_TPSA>
32.9

> <PUBCHEM_MONOISOTOPIC_WEIGHT>
187.099714

> <PUBCHEM_TOTAL_CHARGE>
0

> <PUBCHEM_HEAVY_ATOM_COUNT>
14

> <PUBCHEM_ATOM_DEF_STEREO_COUNT>
0

> <PUBCHEM_ATOM_UDEF_STEREO_COUNT>
1

> <PUBCHEM_BOND_DEF_STEREO_COUNT>
0

> <PUBCHEM_BOND_UDEF_STEREO_COUNT>
0

> <PUBCHEM_ISOTOPIC_ATOM_COUNT>
0

> <PUBCHEM_COMPONENT_COUNT>
1

> <PUBCHEM_CACTVS_TAUTO_COUNT>
2

> <PUBCHEM_COORDINATE_TYPE>
1
5
255

> <PUBCHEM_BONDANNOTATIONS>
10  12  8
11  14  8
12  14  8
2  7  8
2  8  8
3  9  3
4  5  8
4  8  8
5  10  8
5  7  8
7  11  8

$$$$
23497816
  -OEChem-05231305152D

 26 27  0     0  0  0  0  0  0999 V2000
    6.8671   -0.5000    0.0000 Cl  0  0  0  0  0  0  0  0  0  0  0  0
    3.4030    0.5000    0.0000 O   0  0  0  0  0  0  0  0  0  0  0  0
    2.5369   -1.0000    0.0000 N   0  0  0  0  0  0  0  0  0  0  0  0
    5.1350   -0.5000    0.0000 C   0  0  0  0  0  0  0  0  0  0  0  0
    5.1350    0.5000    0.0000 C   0  0  0  0  0  0  0  0  0  0  0  0
    4.2690   -1.0000    0.0000 C   0  0  0  0  0  0  0  0  0  0  0  0
    6.0010   -1.0000    0.0000 C   0  0  0  0  0  0  0  0  0  0  0  0
    4.2690   -2.0000    0.0000 C   0  0  0  0  0  0  0  0  0  0  0  0
    6.0010    1.0000    0.0000 C   0  0  0  0  0  0  0  0  0  0  0  0
    4.2690    1.0000    0.0000 C   0  0  0  0  0  0  0  0  0  0  0  0
    6.0010   -2.0000    0.0000 C   0  0  0  0  0  0  0  0  0  0  0  0
    5.1350   -2.5000    0.0000 C   0  0  0  0  0  0  0  0  0  0  0  0
    3.4030   -0.5000    0.0000 C   0  0  0  0  0  0  0  0  0  0  0  0
    6.0010    2.0000    0.0000 C   0  0  0  0  0  0  0  0  0  0  0  0
    4.2690    2.0000    0.0000 C   0  0  0  0  0  0  0  0  0  0  0  0
    5.1350    2.5000    0.0000 C   0  0  0  0  0  0  0  0  0  0  0  0
    3.7320   -2.3100    0.0000 H   0  0  0  0  0  0  0  0  0  0  0  0
    6.5380    0.6900    0.0000 H   0  0  0  0  0  0  0  0  0  0  0  0
    3.7320    0.6900    0.0000 H   0  0  0  0  0  0  0  0  0  0  0  0
    6.5380   -2.3100    0.0000 H   0  0  0  0  0  0  0  0  0  0  0  0
    5.1350   -3.1200    0.0000 H   0  0  0  0  0  0  0  0  0  0  0  0
    6.5380    2.3100    0.0000 H   0  0  0  0  0  0  0  0  0  0  0  0
    3.7320    2.3100    0.0000 H   0  0  0  0  0  0  0  0  0  0  0  0
    5.1350    3.1200    0.0000 H   0  0  0  0  0  0  0  0  0  0  0  0
    2.0000   -0.6900    0.0000 H   0  0  0  0  0  0  0  0  0  0  0  0
    2.5369   -1.6200    0.0000 H   0  0  0  0  0  0  0  0  0  0  0  0
  1  7  1  0  0  0  0
  2 13  2  0  0  0  0
  3 13  1  0  0  0  0
  3 25  1  0  0  0  0
  3 26  1  0  0  0  0
  4  5  1  0  0  0  0
  4  6  2  0  0  0  0
  4  7  1  0  0  0  0
  5  9  2  0  0  0  0
  5 10  1  0  0  0  0
  6  8  1  0  0  0  0
  6 13  1  0  0  0  0
  7 11  2  0  0  0  0
  8 12  2  0  0  0  0
  8 17  1  0  0  0  0
  9 14  1  0  0  0  0
  9 18  1  0  0  0  0
 10 15  2  0  0  0  0
 10 19  1  0  0  0  0
 11 12  1  0  0  0  0
 11 20  1  0  0  0  0
 12 21  1  0  0  0  0
 14 16  2  0  0  0  0
 14 22  1  0  0  0  0
 15 16  1  0  0  0  0
 15 23  1  0  0  0  0
 16 24  1  0  0  0  0
M  END
> <PUBCHEM_COMPOUND_CID>
23497816

> <PUBCHEM_COMPOUND_CANONICALIZED>
1

> <PUBCHEM_CACTVS_COMPLEXITY>
250

> <PUBCHEM_CACTVS_HBOND_ACCEPTOR>
1

> <PUBCHEM_CACTVS_HBOND_DONOR>
1

> <PUBCHEM_CACTVS_ROTATABLE_BOND>
2

> <PUBCHEM_CACTVS_SUBSKEYS>
AAADccByIAAEAAAAAAAAAAAAAAAAAAAAAAAwYAAAAAAAAAABQAAAHgIQAAAADAKBmCAwAIBAAACIAiFSEACCAAAkBQAIiAEABsgIIDKBlxGAIQBggAAIiYcYiMCOgAAAIAARAAAAAABAACIAAAAAAAAAAA==

> <PUBCHEM_IUPAC_OPENEYE_NAME>
3-chloro-2-phenyl-benzamide

> <PUBCHEM_IUPAC_CAS_NAME>
3-chloro-2-phenylbenzamide

> <PUBCHEM_IUPAC_NAME>
3-chloro-2-phenylbenzamide

> <PUBCHEM_IUPAC_SYSTEMATIC_NAME>
3-chloranyl-2-phenyl-benzamide

> <PUBCHEM_IUPAC_TRADITIONAL_NAME>
3-chloro-2-phenyl-benzamide

> <PUBCHEM_IUPAC_INCHI>
InChI=1S/C13H10ClNO/c14-11-8-4-7-10(13(15)16)12(11)9-5-2-1-3-6-9/h1-8H,(H2,15,16)

> <PUBCHEM_IUPAC_INCHIKEY>
KDRXITOXTQFTTI-UHFFFAOYSA-N

> <PUBCHEM_XLOGP3>
3.2

> <PUBCHEM_EXACT_MASS>
231.045092

> <PUBCHEM_MOLECULAR_FORMULA>
C13H10ClNO

> <PUBCHEM_MOLECULAR_WEIGHT>
231.6776

> <PUBCHEM_OPENEYE_CAN_SMILES>
C1=CC=C(C=C1)C2=C(C=CC=C2Cl)C(=O)N

> <PUBCHEM_OPENEYE_ISO_SMILES>
C1=CC=C(C=C1)C2=C(C=CC=C2Cl)C(=O)N

> <PUBCHEM_CACTVS_TPSA>
43.1

> <PUBCHEM_MONOISOTOPIC_WEIGHT>
231.045092

> <PUBCHEM_TOTAL_CHARGE>
0

> <PUBCHEM_HEAVY_ATOM_COUNT>
16

> <PUBCHEM_ATOM_DEF_STEREO_COUNT>
0

> <PUBCHEM_ATOM_UDEF_STEREO_COUNT>
0

> <PUBCHEM_BOND_DEF_STEREO_COUNT>
0

> <PUBCHEM_BOND_UDEF_STEREO_COUNT>
0

> <PUBCHEM_ISOTOPIC_ATOM_COUNT>
0

> <PUBCHEM_COMPONENT_COUNT>
1

> <PUBCHEM_CACTVS_TAUTO_COUNT>
2

> <PUBCHEM_COORDINATE_TYPE>
1
5
255

> <PUBCHEM_BONDANNOTATIONS>
10  15  8
11  12  8
14  16  8
15  16  8
4  6  8
4  7  8
5  10  8
5  9  8
6  8  8
7  11  8
8  12  8
9  14  8

$$$$
23498734
  -OEChem-05231305152D

 23 24  0     0  0  0  0  0  0999 V2000
    7.2566    1.9315    0.0000 O   0  0  0  0  0  0  0  0  0  0  0  0
    4.6783   -0.3820    0.0000 N   0  0  0  0  0  0  0  0  0  0  0  0
    5.9674    0.7747    0.0000 N   0  0  0  0  0  0  0  0  0  0  0  0
    3.7320   -0.6867    0.0000 C   0  0  0  0  0  0  0  0  0  0  0  0
    3.7320   -1.6867    0.0000 C   0  0  0  0  0  0  0  0  0  0  0  0
    4.9889    0.5685    0.0000 C   0  0  0  0  0  0  0  0  0  0  0  0
    5.2619   -1.1867    0.0000 C   0  0  0  0  0  0  0  0  0  0  0  0
    4.6783   -1.9915    0.0000 C   0  0  0  0  0  0  0  0  0  0  0  0
    2.8660   -0.1867    0.0000 C   0  0  0  0  0  0  0  0  0  0  0  0
    2.8660   -2.1867    0.0000 C   0  0  0  0  0  0  0  0  0  0  0  0
    2.0000   -0.6867    0.0000 C   0  0  0  0  0  0  0  0  0  0  0  0
    2.0000   -1.6867    0.0000 C   0  0  0  0  0  0  0  0  0  0  0  0
    6.2781    1.7253    0.0000 C   0  0  0  0  0  0  0  0  0  0  0  0
    4.9684    1.1882    0.0000 H   0  0  0  0  0  0  0  0  0  0  0  0
    4.3751    0.6559    0.0000 H   0  0  0  0  0  0  0  0  0  0  0  0
    5.8819   -1.1867    0.0000 H   0  0  0  0  0  0  0  0  0  0  0  0
    4.8709   -2.5808    0.0000 H   0  0  0  0  0  0  0  0  0  0  0  0
    2.8660    0.4333    0.0000 H   0  0  0  0  0  0  0  0  0  0  0  0
    2.8660   -2.8067    0.0000 H   0  0  0  0  0  0  0  0  0  0  0  0
    1.4631   -0.3767    0.0000 H   0  0  0  0  0  0  0  0  0  0  0  0
    1.4631   -1.9967    0.0000 H   0  0  0  0  0  0  0  0  0  0  0  0
    6.3815    0.3133    0.0000 H   0  0  0  0  0  0  0  0  0  0  0  0
    5.8640    2.1867    0.0000 H   0  0  0  0  0  0  0  0  0  0  0  0
  1 13  2  0  0  0  0
  2  4  1  0  0  0  0
  2  6  1  0  0  0  0
  2  7  1  0  0  0  0
  3  6  1  0  0  0  0
  3 13  1  0  0  0  0
  3 22  1  0  0  0  0
  4  5  1  0  0  0  0
  4  9  2  0  0  0  0
  5  8  1  0  0  0  0
  5 10  2  0  0  0  0
  6 14  1  0  0  0  0
  6 15  1  0  0  0  0
  7  8  2  0  0  0  0
  7 16  1  0  0  0  0
  8 17  1  0  0  0  0
  9 11  1  0  0  0  0
  9 18  1  0  0  0  0
 10 12  1  0  0  0  0
 10 19  1  0  0  0  0
 11 12  2  0  0  0  0
 11 20  1  0  0  0  0
 12 21  1  0  0  0  0
 13 23  1  0  0  0  0
M  END
> <PUBCHEM_COMPOUND_CID>
23498734

> <PUBCHEM_COMPOUND_CANONICALIZED>
1

> <PUBCHEM_CACTVS_COMPLEXITY>
184

> <PUBCHEM_CACTVS_HBOND_ACCEPTOR>
1

> <PUBCHEM_CACTVS_HBOND_DONOR>
1

> <PUBCHEM_CACTVS_ROTATABLE_BOND>
2

> <PUBCHEM_CACTVS_SUBSKEYS>
AAADccBzIAAAAAAAAAAAAAAAAAAAAWAAAAAwAAAAAAAAAFgB8AAAHgAQAAAADAjBHgY9wPPMEACoAzRn1ACCgCAxAiAI2KA4ZJiIIOLAkZGEIAhogwLIyCcQgIAOAAAAAAACAAAAAAAAAAQAAAAAAAAAAA==

> <PUBCHEM_IUPAC_OPENEYE_NAME>
N-(indol-1-ylmethyl)formamide

> <PUBCHEM_IUPAC_CAS_NAME>
N-(1-indolylmethyl)formamide

> <PUBCHEM_IUPAC_NAME>
N-(indol-1-ylmethyl)formamide

> <PUBCHEM_IUPAC_SYSTEMATIC_NAME>
N-(indol-1-ylmethyl)methanamide

> <PUBCHEM_IUPAC_TRADITIONAL_NAME>
N-(indol-1-ylmethyl)formamide

> <PUBCHEM_IUPAC_INCHI>
InChI=1S/C10H10N2O/c13-8-11-7-12-6-5-9-3-1-2-4-10(9)12/h1-6,8H,7H2,(H,11,13)

> <PUBCHEM_IUPAC_INCHIKEY>
BJBLNOCCKKPFHU-UHFFFAOYSA-N

> <PUBCHEM_XLOGP3>
2.1

> <PUBCHEM_EXACT_MASS>
174.079313

> <PUBCHEM_MOLECULAR_FORMULA>
C10H10N2O

> <PUBCHEM_MOLECULAR_WEIGHT>
174.1992

> <PUBCHEM_OPENEYE_CAN_SMILES>
C1=CC=C2C(=C1)C=CN2CNC=O

> <PUBCHEM_OPENEYE_ISO_SMILES>
C1=CC=C2C(=C1)C=CN2CNC=O

> <PUBCHEM_CACTVS_TPSA>
34

> <PUBCHEM_MONOISOTOPIC_WEIGHT>
174.079313

> <PUBCHEM_TOTAL_CHARGE>
0

> <PUBCHEM_HEAVY_ATOM_COUNT>
13

> <PUBCHEM_ATOM_DEF_STEREO_COUNT>
0

> <PUBCHEM_ATOM_UDEF_STEREO_COUNT>
0

> <PUBCHEM_BOND_DEF_STEREO_COUNT>
0

> <PUBCHEM_BOND_UDEF_STEREO_COUNT>
0

> <PUBCHEM_ISOTOPIC_ATOM_COUNT>
0

> <PUBCHEM_COMPONENT_COUNT>
1

> <PUBCHEM_CACTVS_TAUTO_COUNT>
2

> <PUBCHEM_COORDINATE_TYPE>
1
5
255

> <PUBCHEM_BONDANNOTATIONS>
10  12  8
11  12  8
2  4  8
2  7  8
4  5  8
4  9  8
5  10  8
5  8  8
7  8  8
9  11  8

$$$$
23499634
  -OEChem-05231305152D

 19 19  0     0  0  0  0  0  0999 V2000
    2.3660    1.4330    0.0000 I   0  0  0  0  0  0  0  0  0  0  0  0
    3.3660    1.4330    0.0000 O   0  0  0  0  0  0  0  0  0  0  0  0
    2.8660    0.5670    0.0000 C   0  0  0  0  0  0  0  0  0  0  0  0
    2.0000    0.0670    0.0000 C   0  0  0  0  0  0  0  0  0  0  0  0
    3.7320    0.0670    0.0000 C   0  0  0  0  0  0  0  0  0  0  0  0
    2.0000   -0.9330    0.0000 C   0  0  0  0  0  0  0  0  0  0  0  0
    3.7320   -0.9330    0.0000 C   0  0  0  0  0  0  0  0  0  0  0  0
    2.8660   -1.4330    0.0000 C   0  0  0  0  0  0  0  0  0  0  0  0
    4.3426   -0.0407    0.0000 H   0  0  0  0  0  0  0  0  0  0  0  0
    3.9441    0.6496    0.0000 H   0  0  0  0  0  0  0  0  0  0  0  0
    1.7880    0.6496    0.0000 H   0  0  0  0  0  0  0  0  0  0  0  0
    1.3894   -0.0407    0.0000 H   0  0  0  0  0  0  0  0  0  0  0  0
    1.3894   -0.8254    0.0000 H   0  0  0  0  0  0  0  0  0  0  0  0
    1.7880   -1.5156    0.0000 H   0  0  0  0  0  0  0  0  0  0  0  0
    3.9441   -1.5156    0.0000 H   0  0  0  0  0  0  0  0  0  0  0  0
    4.3426   -0.8254    0.0000 H   0  0  0  0  0  0  0  0  0  0  0  0
    2.4675   -1.9080    0.0000 H   0  0  0  0  0  0  0  0  0  0  0  0
    3.2646   -1.9080    0.0000 H   0  0  0  0  0  0  0  0  0  0  0  0
    3.9860    1.4330    0.0000 H   0  0  0  0  0  0  0  0  0  0  0  0
  1  3  1  0  0  0  0
  2  3  1  0  0  0  0
  2 19  1  0  0  0  0
  3  4  1  0  0  0  0
  3  5  1  0  0  0  0
  4  6  1  0  0  0  0
  4 11  1  0  0  0  0
  4 12  1  0  0  0  0
  5  7  1  0  0  0  0
  5  9  1  0  0  0  0
  5 10  1  0  0  0  0
  6  8  1  0  0  0  0
  6 13  1  0  0  0  0
  6 14  1  0  0  0  0
  7  8  1  0  0  0  0
  7 15  1  0  0  0  0
  7 16  1  0  0  0  0
  8 17  1  0  0  0  0
  8 18  1  0  0  0  0
M  END
> <PUBCHEM_COMPOUND_CID>
23499634

> <PUBCHEM_COMPOUND_CANONICALIZED>
1

> <PUBCHEM_CACTVS_COMPLEXITY>
76.6

> <PUBCHEM_CACTVS_HBOND_ACCEPTOR>
1

> <PUBCHEM_CACTVS_HBOND_DONOR>
1

> <PUBCHEM_CACTVS_ROTATABLE_BOND>
0

> <PUBCHEM_CACTVS_SUBSKEYS>
AAADccBgIAAAAgAAAAAAAAAAAAAAAAAAAAAwAAAAAAAAAAAAAAAAGgAgCAAACASCgAAAAAAAAgAAAAAAAAAAAAAAAAAAAAAAAAAAAAIAAAAAQAAEAAAAAAGAQAAAAAAAAAAAAAAAAAAAAAAAAAAAAAAAAA==

> <PUBCHEM_IUPAC_OPENEYE_NAME>
1-iodocyclohexanol

> <PUBCHEM_IUPAC_CAS_NAME>
1-iodo-1-cyclohexanol

> <PUBCHEM_IUPAC_NAME>
1-iodocyclohexan-1-ol

> <PUBCHEM_IUPAC_SYSTEMATIC_NAME>
1-iodanylcyclohexan-1-ol

> <PUBCHEM_IUPAC_TRADITIONAL_NAME>
1-iodocyclohexanol

> <PUBCHEM_IUPAC_INCHI>
InChI=1S/C6H11IO/c7-6(8)4-2-1-3-5-6/h8H,1-5H2

> <PUBCHEM_IUPAC_INCHIKEY>
TZJGBUADKQIGSG-UHFFFAOYSA-N

> <PUBCHEM_XLOGP3>
1.7

> <PUBCHEM_EXACT_MASS>
225.985463

> <PUBCHEM_MOLECULAR_FORMULA>
C6H11IO

> <PUBCHEM_MOLECULAR_WEIGHT>
226.05541

> <PUBCHEM_OPENEYE_CAN_SMILES>
C1CCC(CC1)(O)I

> <PUBCHEM_OPENEYE_ISO_SMILES>
C1CCC(CC1)(O)I

> <PUBCHEM_CACTVS_TPSA>
20.2

> <PUBCHEM_MONOISOTOPIC_WEIGHT>
225.985463

> <PUBCHEM_TOTAL_CHARGE>
0

> <PUBCHEM_HEAVY_ATOM_COUNT>
8

> <PUBCHEM_ATOM_DEF_STEREO_COUNT>
0

> <PUBCHEM_ATOM_UDEF_STEREO_COUNT>
0

> <PUBCHEM_BOND_DEF_STEREO_COUNT>
0

> <PUBCHEM_BOND_UDEF_STEREO_COUNT>
0

> <PUBCHEM_ISOTOPIC_ATOM_COUNT>
0

> <PUBCHEM_COMPONENT_COUNT>
1

> <PUBCHEM_CACTVS_TAUTO_COUNT>
1

> <PUBCHEM_COORDINATE_TYPE>
1
5
255

$$$$
