37134612
  -OEChem-05231305192D

 33 34  0     1  0  0  0  0  0999 V2000
    2.5369   -2.2489    0.0000 N   0  3  0  0  0  0  0  0  0  0  0  0
    3.4030   -0.7489    0.0000 C   0  0  2  0  0  0  0  0  0  0  0  0
    4.2690   -0.2489    0.0000 C   0  0  0  0  0  0  0  0  0  0  0  0
    3.4030   -1.7489    0.0000 C   0  0  0  0  0  0  0  0  0  0  0  0
    4.2690    0.7511    0.0000 C   0  0  0  0  0  0  0  0  0  0  0  0
    2.5369   -0.2489    0.0000 C   0  0  0  0  0  0  0  0  0  0  0  0
    5.1350    1.2511    0.0000 C   0  0  0  0  0  0  0  0  0  0  0  0
    5.1350    2.2511    0.0000 C   0  0  0  0  0  0  0  0  0  0  0  0
    3.4030    1.2511    0.0000 C   0  0  0  0  0  0  0  0  0  0  0  0
    6.0290    0.7165    0.0000 C   0  0  0  0  0  0  0  0  0  0  0  0
    4.2690    2.7511    0.0000 C   0  0  0  0  0  0  0  0  0  0  0  0
    3.4030    2.2511    0.0000 C   0  0  0  0  0  0  0  0  0  0  0  0
    6.0290    2.7858    0.0000 C   0  0  0  0  0  0  0  0  0  0  0  0
    6.9350    1.2303    0.0000 C   0  0  0  0  0  0  0  0  0  0  0  0
    6.9350    2.2720    0.0000 C   0  0  0  0  0  0  0  0  0  0  0  0
    3.4030   -0.1289    0.0000 H   0  0  0  0  0  0  0  0  0  0  0  0
    4.4810   -0.8315    0.0000 H   0  0  0  0  0  0  0  0  0  0  0  0
    4.8796   -0.1412    0.0000 H   0  0  0  0  0  0  0  0  0  0  0  0
    3.6150   -2.3315    0.0000 H   0  0  0  0  0  0  0  0  0  0  0  0
    4.0135   -1.6412    0.0000 H   0  0  0  0  0  0  0  0  0  0  0  0
    2.8469    0.2881    0.0000 H   0  0  0  0  0  0  0  0  0  0  0  0
    2.0000    0.0611    0.0000 H   0  0  0  0  0  0  0  0  0  0  0  0
    2.2269   -0.7858    0.0000 H   0  0  0  0  0  0  0  0  0  0  0  0
    2.8660    0.9411    0.0000 H   0  0  0  0  0  0  0  0  0  0  0  0
    2.0000   -2.5589    0.0000 H   0  0  0  0  0  0  0  0  0  0  0  0
    2.8469   -2.7858    0.0000 H   0  0  0  0  0  0  0  0  0  0  0  0
    2.2269   -1.7119    0.0000 H   0  0  0  0  0  0  0  0  0  0  0  0
    6.0218    0.0965    0.0000 H   0  0  0  0  0  0  0  0  0  0  0  0
    4.2690    3.3711    0.0000 H   0  0  0  0  0  0  0  0  0  0  0  0
    2.8660    2.5611    0.0000 H   0  0  0  0  0  0  0  0  0  0  0  0
    6.0218    3.4058    0.0000 H   0  0  0  0  0  0  0  0  0  0  0  0
    7.4708    0.9183    0.0000 H   0  0  0  0  0  0  0  0  0  0  0  0
    7.4708    2.5840    0.0000 H   0  0  0  0  0  0  0  0  0  0  0  0
  1  4  1  0  0  0  0
  1 25  1  0  0  0  0
  1 26  1  0  0  0  0
  1 27  1  0  0  0  0
  2  3  1  0  0  0  0
  2  4  1  0  0  0  0
  2  6  1  6  0  0  0
  2 16  1  0  0  0  0
  3  5  1  0  0  0  0
  3 17  1  0  0  0  0
  3 18  1  0  0  0  0
  4 19  1  0  0  0  0
  4 20  1  0  0  0  0
  5  7  1  0  0  0  0
  5  9  2  0  0  0  0
  6 21  1  0  0  0  0
  6 22  1  0  0  0  0
  6 23  1  0  0  0  0
  7  8  1  0  0  0  0
  7 10  2  0  0  0  0
  8 11  1  0  0  0  0
  8 13  2  0  0  0  0
  9 12  1  0  0  0  0
  9 24  1  0  0  0  0
 10 14  1  0  0  0  0
 10 28  1  0  0  0  0
 11 12  2  0  0  0  0
 11 29  1  0  0  0  0
 12 30  1  0  0  0  0
 13 15  1  0  0  0  0
 13 31  1  0  0  0  0
 14 15  2  0  0  0  0
 14 32  1  0  0  0  0
 15 33  1  0  0  0  0
M  CHG  1   1   1
M  END
> <PUBCHEM_COMPOUND_CID>
37134612

> <PUBCHEM_COMPOUND_CANONICALIZED>
1

> <PUBCHEM_CACTVS_COMPLEXITY>
190

> <PUBCHEM_CACTVS_HBOND_ACCEPTOR>
0

> <PUBCHEM_CACTVS_HBOND_DONOR>
1

> <PUBCHEM_CACTVS_ROTATABLE_BOND>
3

> <PUBCHEM_CACTVS_SUBSKEYS>
AAADceByAAAAAAAAAAAAAAAAAAAAAAAAAAAwYAAAAAAAAADBUAAAHAAQAAAADQDBGAQyAMBAAACAAiBCAAACAAAgAAAIiIAAAIgIICKAkRCAIAAgkAAIiAcQgMAOgAACAAAQAAAAAAQAACAAAAAAAAAAAA==

> <PUBCHEM_IUPAC_OPENEYE_NAME>
[(2R)-2-methyl-3-(1-naphthyl)propyl]ammonium

> <PUBCHEM_IUPAC_CAS_NAME>
[(2R)-2-methyl-3-(1-naphthalenyl)propyl]ammonium

> <PUBCHEM_IUPAC_NAME>
[(2R)-2-methyl-3-naphthalen-1-ylpropyl]azanium

> <PUBCHEM_IUPAC_SYSTEMATIC_NAME>
[(2R)-2-methyl-3-naphthalen-1-yl-propyl]azanium

> <PUBCHEM_IUPAC_TRADITIONAL_NAME>
[(2R)-2-methyl-3-(1-naphthyl)propyl]ammonium

> <PUBCHEM_IUPAC_INCHI>
InChI=1S/C14H17N/c1-11(10-15)9-13-7-4-6-12-5-2-3-8-14(12)13/h2-8,11H,9-10,15H2,1H3/p+1/t11-/m1/s1

> <PUBCHEM_IUPAC_INCHIKEY>
LKMDBJJBQCVRCG-LLVKDONJSA-O

> <PUBCHEM_XLOGP3>
3.7

> <PUBCHEM_EXACT_MASS>
200.143925

> <PUBCHEM_MOLECULAR_FORMULA>
C14H18N+

> <PUBCHEM_MOLECULAR_WEIGHT>
200.29942

> <PUBCHEM_OPENEYE_CAN_SMILES>
CC(CC1=CC=CC2=CC=CC=C21)C[NH3+]

> <PUBCHEM_OPENEYE_ISO_SMILES>
C[C@H](CC1=CC=CC2=CC=CC=C21)C[NH3+]

> <PUBCHEM_CACTVS_TPSA>
27.6

> <PUBCHEM_MONOISOTOPIC_WEIGHT>
200.143925

> <PUBCHEM_TOTAL_CHARGE>
1

> <PUBCHEM_HEAVY_ATOM_COUNT>
15

> <PUBCHEM_ATOM_DEF_STEREO_COUNT>
1

> <PUBCHEM_ATOM_UDEF_STEREO_COUNT>
0

> <PUBCHEM_BOND_DEF_STEREO_COUNT>
0

> <PUBCHEM_BOND_UDEF_STEREO_COUNT>
0

> <PUBCHEM_ISOTOPIC_ATOM_COUNT>
0

> <PUBCHEM_COMPONENT_COUNT>
1

> <PUBCHEM_CACTVS_TAUTO_COUNT>
1

> <PUBCHEM_COORDINATE_TYPE>
1
5
255

> <PUBCHEM_BONDANNOTATIONS>
10  14  8
11  12  8
13  15  8
14  15  8
2  6  6
5  7  8
5  9  8
7  10  8
7  8  8
8  11  8
8  13  8
9  12  8

$$$$
37134613
  -OEChem-05231305192D

 32 33  0     1  0  0  0  0  0999 V2000
    2.5369   -2.2073    0.0000 N   0  0  0  0  0  0  0  0  0  0  0  0
    3.4030   -0.7073    0.0000 C   0  0  2  0  0  0  0  0  0  0  0  0
    4.2690   -0.2073    0.0000 C   0  0  0  0  0  0  0  0  0  0  0  0
    4.2690    0.7927    0.0000 C   0  0  0  0  0  0  0  0  0  0  0  0
    3.4030   -1.7073    0.0000 C   0  0  0  0  0  0  0  0  0  0  0  0
    5.1350    1.2927    0.0000 C   0  0  0  0  0  0  0  0  0  0  0  0
    2.5369   -0.2073    0.0000 C   0  0  0  0  0  0  0  0  0  0  0  0
    5.1350    2.2927    0.0000 C   0  0  0  0  0  0  0  0  0  0  0  0
    3.4030    1.2927    0.0000 C   0  0  0  0  0  0  0  0  0  0  0  0
    6.0290    0.7580    0.0000 C   0  0  0  0  0  0  0  0  0  0  0  0
    4.2690    2.7927    0.0000 C   0  0  0  0  0  0  0  0  0  0  0  0
    3.4030    2.2927    0.0000 C   0  0  0  0  0  0  0  0  0  0  0  0
    6.0290    2.8273    0.0000 C   0  0  0  0  0  0  0  0  0  0  0  0
    6.9350    1.2718    0.0000 C   0  0  0  0  0  0  0  0  0  0  0  0
    6.9350    2.3135    0.0000 C   0  0  0  0  0  0  0  0  0  0  0  0
    3.4030   -0.0873    0.0000 H   0  0  0  0  0  0  0  0  0  0  0  0
    4.4810   -0.7899    0.0000 H   0  0  0  0  0  0  0  0  0  0  0  0
    4.8796   -0.0997    0.0000 H   0  0  0  0  0  0  0  0  0  0  0  0
    3.6150   -2.2899    0.0000 H   0  0  0  0  0  0  0  0  0  0  0  0
    4.0135   -1.5997    0.0000 H   0  0  0  0  0  0  0  0  0  0  0  0
    2.8469    0.3296    0.0000 H   0  0  0  0  0  0  0  0  0  0  0  0
    2.0000    0.1027    0.0000 H   0  0  0  0  0  0  0  0  0  0  0  0
    2.2269   -0.7443    0.0000 H   0  0  0  0  0  0  0  0  0  0  0  0
    2.8660    0.9827    0.0000 H   0  0  0  0  0  0  0  0  0  0  0  0
    6.0218    0.1380    0.0000 H   0  0  0  0  0  0  0  0  0  0  0  0
    4.2690    3.4127    0.0000 H   0  0  0  0  0  0  0  0  0  0  0  0
    2.8660    2.6027    0.0000 H   0  0  0  0  0  0  0  0  0  0  0  0
    6.0218    3.4473    0.0000 H   0  0  0  0  0  0  0  0  0  0  0  0
    2.5369   -2.8273    0.0000 H   0  0  0  0  0  0  0  0  0  0  0  0
    2.0000   -1.8973    0.0000 H   0  0  0  0  0  0  0  0  0  0  0  0
    7.4708    0.9598    0.0000 H   0  0  0  0  0  0  0  0  0  0  0  0
    7.4708    2.6256    0.0000 H   0  0  0  0  0  0  0  0  0  0  0  0
  1  5  1  0  0  0  0
  1 29  1  0  0  0  0
  1 30  1  0  0  0  0
  2  3  1  0  0  0  0
  2  5  1  0  0  0  0
  2  7  1  6  0  0  0
  2 16  1  0  0  0  0
  3  4  1  0  0  0  0
  3 17  1  0  0  0  0
  3 18  1  0  0  0  0
  4  6  1  0  0  0  0
  4  9  2  0  0  0  0
  5 19  1  0  0  0  0
  5 20  1  0  0  0  0
  6  8  1  0  0  0  0
  6 10  2  0  0  0  0
  7 21  1  0  0  0  0
  7 22  1  0  0  0  0
  7 23  1  0  0  0  0
  8 11  1  0  0  0  0
  8 13  2  0  0  0  0
  9 12  1  0  0  0  0
  9 24  1  0  0  0  0
 10 14  1  0  0  0  0
 10 25  1  0  0  0  0
 11 12  2  0  0  0  0
 11 26  1  0  0  0  0
 12 27  1  0  0  0  0
 13 15  1  0  0  0  0
 13 28  1  0  0  0  0
 14 15  2  0  0  0  0
 14 31  1  0  0  0  0
 15 32  1  0  0  0  0
M  END
> <PUBCHEM_COMPOUND_CID>
37134613

> <PUBCHEM_COMPOUND_CANONICALIZED>
1

> <PUBCHEM_CACTVS_COMPLEXITY>
190

> <PUBCHEM_CACTVS_HBOND_ACCEPTOR>
1

> <PUBCHEM_CACTVS_HBOND_DONOR>
1

> <PUBCHEM_CACTVS_ROTATABLE_BOND>
3

> <PUBCHEM_CACTVS_SUBSKEYS>
AAADceByAAAAAAAAAAAAAAAAAAAAAAAAAAAwYAAAAAAAAADBUAAAHAAQAAAADQDBGAQyAMBAAACAAiBCAAACAAAgAAAIiIAAAIgIICKAkRCAIAAgkAAIiAcQgMAOgAACAAAQAAAAAAQAACAAAAAAAAAAAA==

> <PUBCHEM_IUPAC_OPENEYE_NAME>
(2R)-2-methyl-3-(1-naphthyl)propan-1-amine

> <PUBCHEM_IUPAC_CAS_NAME>
(2R)-2-methyl-3-(1-naphthalenyl)-1-propanamine

> <PUBCHEM_IUPAC_NAME>
(2R)-2-methyl-3-naphthalen-1-ylpropan-1-amine

> <PUBCHEM_IUPAC_SYSTEMATIC_NAME>
(2R)-2-methyl-3-naphthalen-1-yl-propan-1-amine

> <PUBCHEM_IUPAC_TRADITIONAL_NAME>
[(2R)-2-methyl-3-(1-naphthyl)propyl]amine

> <PUBCHEM_IUPAC_INCHI>
InChI=1S/C14H17N/c1-11(10-15)9-13-7-4-6-12-5-2-3-8-14(12)13/h2-8,11H,9-10,15H2,1H3/t11-/m1/s1

> <PUBCHEM_IUPAC_INCHIKEY>
LKMDBJJBQCVRCG-LLVKDONJSA-N

> <PUBCHEM_XLOGP3>
3.7

> <PUBCHEM_EXACT_MASS>
199.1361

> <PUBCHEM_MOLECULAR_FORMULA>
C14H17N

> <PUBCHEM_MOLECULAR_WEIGHT>
199.29148

> <PUBCHEM_OPENEYE_CAN_SMILES>
CC(CC1=CC=CC2=CC=CC=C21)CN

> <PUBCHEM_OPENEYE_ISO_SMILES>
C[C@H](CC1=CC=CC2=CC=CC=C21)CN

> <PUBCHEM_CACTVS_TPSA>
26

> <PUBCHEM_MONOISOTOPIC_WEIGHT>
199.1361

> <PUBCHEM_TOTAL_CHARGE>
0

> <PUBCHEM_HEAVY_ATOM_COUNT>
15

> <PUBCHEM_ATOM_DEF_STEREO_COUNT>
1

> <PUBCHEM_ATOM_UDEF_STEREO_COUNT>
0

> <PUBCHEM_BOND_DEF_STEREO_COUNT>
0

> <PUBCHEM_BOND_UDEF_STEREO_COUNT>
0

> <PUBCHEM_ISOTOPIC_ATOM_COUNT>
0

> <PUBCHEM_COMPONENT_COUNT>
1

> <PUBCHEM_CACTVS_TAUTO_COUNT>
1

> <PUBCHEM_COORDINATE_TYPE>
1
5
255

> <PUBCHEM_BONDANNOTATIONS>
10  14  8
11  12  8
13  15  8
14  15  8
2  7  6
4  6  8
4  9  8
6  10  8
6  8  8
8  11  8
8  13  8
9  12  8

$$$$
37134615
  -OEChem-05231305192D

 33 34  0     1  0  0  0  0  0999 V2000
    2.5369   -2.2489    0.0000 N   0  3  0  0  0  0  0  0  0  0  0  0
    3.4030   -0.7489    0.0000 C   0  0  1  0  0  0  0  0  0  0  0  0
    4.2690   -0.2489    0.0000 C   0  0  0  0  0  0  0  0  0  0  0  0
    3.4030   -1.7489    0.0000 C   0  0  0  0  0  0  0  0  0  0  0  0
    4.2690    0.7511    0.0000 C   0  0  0  0  0  0  0  0  0  0  0  0
    2.5369   -0.2489    0.0000 C   0  0  0  0  0  0  0  0  0  0  0  0
    5.1350    1.2511    0.0000 C   0  0  0  0  0  0  0  0  0  0  0  0
    5.1350    2.2511    0.0000 C   0  0  0  0  0  0  0  0  0  0  0  0
    3.4030    1.2511    0.0000 C   0  0  0  0  0  0  0  0  0  0  0  0
    6.0290    0.7165    0.0000 C   0  0  0  0  0  0  0  0  0  0  0  0
    4.2690    2.7511    0.0000 C   0  0  0  0  0  0  0  0  0  0  0  0
    3.4030    2.2511    0.0000 C   0  0  0  0  0  0  0  0  0  0  0  0
    6.0290    2.7858    0.0000 C   0  0  0  0  0  0  0  0  0  0  0  0
    6.9350    1.2303    0.0000 C   0  0  0  0  0  0  0  0  0  0  0  0
    6.9350    2.2720    0.0000 C   0  0  0  0  0  0  0  0  0  0  0  0
    3.4030   -0.1289    0.0000 H   0  0  0  0  0  0  0  0  0  0  0  0
    4.4810   -0.8315    0.0000 H   0  0  0  0  0  0  0  0  0  0  0  0
    4.8796   -0.1412    0.0000 H   0  0  0  0  0  0  0  0  0  0  0  0
    3.6150   -2.3315    0.0000 H   0  0  0  0  0  0  0  0  0  0  0  0
    4.0135   -1.6412    0.0000 H   0  0  0  0  0  0  0  0  0  0  0  0
    2.8469    0.2881    0.0000 H   0  0  0  0  0  0  0  0  0  0  0  0
    2.0000    0.0611    0.0000 H   0  0  0  0  0  0  0  0  0  0  0  0
    2.2269   -0.7858    0.0000 H   0  0  0  0  0  0  0  0  0  0  0  0
    2.8660    0.9411    0.0000 H   0  0  0  0  0  0  0  0  0  0  0  0
    2.0000   -2.5589    0.0000 H   0  0  0  0  0  0  0  0  0  0  0  0
    2.8469   -2.7858    0.0000 H   0  0  0  0  0  0  0  0  0  0  0  0
    2.2269   -1.7119    0.0000 H   0  0  0  0  0  0  0  0  0  0  0  0
    6.0218    0.0965    0.0000 H   0  0  0  0  0  0  0  0  0  0  0  0
    4.2690    3.3711    0.0000 H   0  0  0  0  0  0  0  0  0  0  0  0
    2.8660    2.5611    0.0000 H   0  0  0  0  0  0  0  0  0  0  0  0
    6.0218    3.4058    0.0000 H   0  0  0  0  0  0  0  0  0  0  0  0
    7.4708    0.9183    0.0000 H   0  0  0  0  0  0  0  0  0  0  0  0
    7.4708    2.5840    0.0000 H   0  0  0  0  0  0  0  0  0  0  0  0
  1  4  1  0  0  0  0
  1 25  1  0  0  0  0
  1 26  1  0  0  0  0
  1 27  1  0  0  0  0
  2  3  1  0  0  0  0
  2  4  1  0  0  0  0
  2  6  1  1  0  0  0
  2 16  1  0  0  0  0
  3  5  1  0  0  0  0
  3 17  1  0  0  0  0
  3 18  1  0  0  0  0
  4 19  1  0  0  0  0
  4 20  1  0  0  0  0
  5  7  1  0  0  0  0
  5  9  2  0  0  0  0
  6 21  1  0  0  0  0
  6 22  1  0  0  0  0
  6 23  1  0  0  0  0
  7  8  1  0  0  0  0
  7 10  2  0  0  0  0
  8 11  1  0  0  0  0
  8 13  2  0  0  0  0
  9 12  1  0  0  0  0
  9 24  1  0  0  0  0
 10 14  1  0  0  0  0
 10 28  1  0  0  0  0
 11 12  2  0  0  0  0
 11 29  1  0  0  0  0
 12 30  1  0  0  0  0
 13 15  1  0  0  0  0
 13 31  1  0  0  0  0
 14 15  2  0  0  0  0
 14 32  1  0  0  0  0
 15 33  1  0  0  0  0
M  CHG  1   1   1
M  END
> <PUBCHEM_COMPOUND_CID>
37134615

> <PUBCHEM_COMPOUND_CANONICALIZED>
1

> <PUBCHEM_CACTVS_COMPLEXITY>
190

> <PUBCHEM_CACTVS_HBOND_ACCEPTOR>
0

> <PUBCHEM_CACTVS_HBOND_DONOR>
1

> <PUBCHEM_CACTVS_ROTATABLE_BOND>
3

> <PUBCHEM_CACTVS_SUBSKEYS>
AAADceByAAAAAAAAAAAAAAAAAAAAAAAAAAAwYAAAAAAAAADBUAAAHAAQAAAADQDBGAQyAMBAAACAAiBCAAACAAAgAAAIiIAAAIgIICKAkRCAIAAgkAAIiAcQgMAOgAACAAAQAAAAAAQAACAAAAAAAAAAAA==

> <PUBCHEM_IUPAC_OPENEYE_NAME>
[(2S)-2-methyl-3-(1-naphthyl)propyl]ammonium

> <PUBCHEM_IUPAC_CAS_NAME>
[(2S)-2-methyl-3-(1-naphthalenyl)propyl]ammonium

> <PUBCHEM_IUPAC_NAME>
[(2S)-2-methyl-3-naphthalen-1-ylpropyl]azanium

> <PUBCHEM_IUPAC_SYSTEMATIC_NAME>
[(2S)-2-methyl-3-naphthalen-1-yl-propyl]azanium

> <PUBCHEM_IUPAC_TRADITIONAL_NAME>
[(2S)-2-methyl-3-(1-naphthyl)propyl]ammonium

> <PUBCHEM_IUPAC_INCHI>
InChI=1S/C14H17N/c1-11(10-15)9-13-7-4-6-12-5-2-3-8-14(12)13/h2-8,11H,9-10,15H2,1H3/p+1/t11-/m0/s1

> <PUBCHEM_IUPAC_INCHIKEY>
LKMDBJJBQCVRCG-NSHDSACASA-O

> <PUBCHEM_XLOGP3>
3.7

> <PUBCHEM_EXACT_MASS>
200.143925

> <PUBCHEM_MOLECULAR_FORMULA>
C14H18N+

> <PUBCHEM_MOLECULAR_WEIGHT>
200.29942

> <PUBCHEM_OPENEYE_CAN_SMILES>
CC(CC1=CC=CC2=CC=CC=C21)C[NH3+]

> <PUBCHEM_OPENEYE_ISO_SMILES>
C[C@@H](CC1=CC=CC2=CC=CC=C21)C[NH3+]

> <PUBCHEM_CACTVS_TPSA>
27.6

> <PUBCHEM_MONOISOTOPIC_WEIGHT>
200.143925

> <PUBCHEM_TOTAL_CHARGE>
1

> <PUBCHEM_HEAVY_ATOM_COUNT>
15

> <PUBCHEM_ATOM_DEF_STEREO_COUNT>
1

> <PUBCHEM_ATOM_UDEF_STEREO_COUNT>
0

> <PUBCHEM_BOND_DEF_STEREO_COUNT>
0

> <PUBCHEM_BOND_UDEF_STEREO_COUNT>
0

> <PUBCHEM_ISOTOPIC_ATOM_COUNT>
0

> <PUBCHEM_COMPONENT_COUNT>
1

> <PUBCHEM_CACTVS_TAUTO_COUNT>
1

> <PUBCHEM_COORDINATE_TYPE>
1
5
255

> <PUBCHEM_BONDANNOTATIONS>
10  14  8
11  12  8
13  15  8
14  15  8
2  6  5
5  7  8
5  9  8
7  10  8
7  8  8
8  11  8
8  13  8
9  12  8

$$$$
37134616
  -OEChem-05231305192D

 32 33  0     1  0  0  0  0  0999 V2000
    2.5369   -2.2073    0.0000 N   0  0  0  0  0  0  0  0  0  0  0  0
    3.4030   -0.7073    0.0000 C   0  0  1  0  0  0  0  0  0  0  0  0
    4.2690   -0.2073    0.0000 C   0  0  0  0  0  0  0  0  0  0  0  0
    4.2690    0.7927    0.0000 C   0  0  0  0  0  0  0  0  0  0  0  0
    3.4030   -1.7073    0.0000 C   0  0  0  0  0  0  0  0  0  0  0  0
    5.1350    1.2927    0.0000 C   0  0  0  0  0  0  0  0  0  0  0  0
    2.5369   -0.2073    0.0000 C   0  0  0  0  0  0  0  0  0  0  0  0
    5.1350    2.2927    0.0000 C   0  0  0  0  0  0  0  0  0  0  0  0
    3.4030    1.2927    0.0000 C   0  0  0  0  0  0  0  0  0  0  0  0
    6.0290    0.7580    0.0000 C   0  0  0  0  0  0  0  0  0  0  0  0
    4.2690    2.7927    0.0000 C   0  0  0  0  0  0  0  0  0  0  0  0
    3.4030    2.2927    0.0000 C   0  0  0  0  0  0  0  0  0  0  0  0
    6.0290    2.8273    0.0000 C   0  0  0  0  0  0  0  0  0  0  0  0
    6.9350    1.2718    0.0000 C   0  0  0  0  0  0  0  0  0  0  0  0
    6.9350    2.3135    0.0000 C   0  0  0  0  0  0  0  0  0  0  0  0
    3.4030   -0.0873    0.0000 H   0  0  0  0  0  0  0  0  0  0  0  0
    4.4810   -0.7899    0.0000 H   0  0  0  0  0  0  0  0  0  0  0  0
    4.8796   -0.0997    0.0000 H   0  0  0  0  0  0  0  0  0  0  0  0
    3.6150   -2.2899    0.0000 H   0  0  0  0  0  0  0  0  0  0  0  0
    4.0135   -1.5997    0.0000 H   0  0  0  0  0  0  0  0  0  0  0  0
    2.8469    0.3296    0.0000 H   0  0  0  0  0  0  0  0  0  0  0  0
    2.0000    0.1027    0.0000 H   0  0  0  0  0  0  0  0  0  0  0  0
    2.2269   -0.7443    0.0000 H   0  0  0  0  0  0  0  0  0  0  0  0
    2.8660    0.9827    0.0000 H   0  0  0  0  0  0  0  0  0  0  0  0
    6.0218    0.1380    0.0000 H   0  0  0  0  0  0  0  0  0  0  0  0
    4.2690    3.4127    0.0000 H   0  0  0  0  0  0  0  0  0  0  0  0
    2.8660    2.6027    0.0000 H   0  0  0  0  0  0  0  0  0  0  0  0
    6.0218    3.4473    0.0000 H   0  0  0  0  0  0  0  0  0  0  0  0
    2.5369   -2.8273    0.0000 H   0  0  0  0  0  0  0  0  0  0  0  0
    2.0000   -1.8973    0.0000 H   0  0  0  0  0  0  0  0  0  0  0  0
    7.4708    0.9598    0.0000 H   0  0  0  0  0  0  0  0  0  0  0  0
    7.4708    2.6256    0.0000 H   0  0  0  0  0  0  0  0  0  0  0  0
  1  5  1  0  0  0  0
  1 29  1  0  0  0  0
  1 30  1  0  0  0  0
  2  3  1  0  0  0  0
  2  5  1  0  0  0  0
  2  7  1  1  0  0  0
  2 16  1  0  0  0  0
  3  4  1  0  0  0  0
  3 17  1  0  0  0  0
  3 18  1  0  0  0  0
  4  6  1  0  0  0  0
  4  9  2  0  0  0  0
  5 19  1  0  0  0  0
  5 20  1  0  0  0  0
  6  8  1  0  0  0  0
  6 10  2  0  0  0  0
  7 21  1  0  0  0  0
  7 22  1  0  0  0  0
  7 23  1  0  0  0  0
  8 11  1  0  0  0  0
  8 13  2  0  0  0  0
  9 12  1  0  0  0  0
  9 24  1  0  0  0  0
 10 14  1  0  0  0  0
 10 25  1  0  0  0  0
 11 12  2  0  0  0  0
 11 26  1  0  0  0  0
 12 27  1  0  0  0  0
 13 15  1  0  0  0  0
 13 28  1  0  0  0  0
 14 15  2  0  0  0  0
 14 31  1  0  0  0  0
 15 32  1  0  0  0  0
M  END
> <PUBCHEM_COMPOUND_CID>
37134616

> <PUBCHEM_COMPOUND_CANONICALIZED>
1

> <PUBCHEM_CACTVS_COMPLEXITY>
190

> <PUBCHEM_CACTVS_HBOND_ACCEPTOR>
1

> <PUBCHEM_CACTVS_HBOND_DONOR>
1

> <PUBCHEM_CACTVS_ROTATABLE_BOND>
3

> <PUBCHEM_CACTVS_SUBSKEYS>
AAADceByAAAAAAAAAAAAAAAAAAAAAAAAAAAwYAAAAAAAAADBUAAAHAAQAAAADQDBGAQyAMBAAACAAiBCAAACAAAgAAAIiIAAAIgIICKAkRCAIAAgkAAIiAcQgMAOgAACAAAQAAAAAAQAACAAAAAAAAAAAA==

> <PUBCHEM_IUPAC_OPENEYE_NAME>
(2S)-2-methyl-3-(1-naphthyl)propan-1-amine

> <PUBCHEM_IUPAC_CAS_NAME>
(2S)-2-methyl-3-(1-naphthalenyl)-1-propanamine

> <PUBCHEM_IUPAC_NAME>
(2S)-2-methyl-3-naphthalen-1-ylpropan-1-amine

> <PUBCHEM_IUPAC_SYSTEMATIC_NAME>
(2S)-2-methyl-3-naphthalen-1-yl-propan-1-amine

> <PUBCHEM_IUPAC_TRADITIONAL_NAME>
[(2S)-2-methyl-3-(1-naphthyl)propyl]amine

> <PUBCHEM_IUPAC_INCHI>
InChI=1S/C14H17N/c1-11(10-15)9-13-7-4-6-12-5-2-3-8-14(12)13/h2-8,11H,9-10,15H2,1H3/t11-/m0/s1

> <PUBCHEM_IUPAC_INCHIKEY>
LKMDBJJBQCVRCG-NSHDSACASA-N

> <PUBCHEM_XLOGP3>
3.7

> <PUBCHEM_EXACT_MASS>
199.1361

> <PUBCHEM_MOLECULAR_FORMULA>
C14H17N

> <PUBCHEM_MOLECULAR_WEIGHT>
199.29148

> <PUBCHEM_OPENEYE_CAN_SMILES>
CC(CC1=CC=CC2=CC=CC=C21)CN

> <PUBCHEM_OPENEYE_ISO_SMILES>
C[C@@H](CC1=CC=CC2=CC=CC=C21)CN

> <PUBCHEM_CACTVS_TPSA>
26

> <PUBCHEM_MONOISOTOPIC_WEIGHT>
199.1361

> <PUBCHEM_TOTAL_CHARGE>
0

> <PUBCHEM_HEAVY_ATOM_COUNT>
15

> <PUBCHEM_ATOM_DEF_STEREO_COUNT>
1

> <PUBCHEM_ATOM_UDEF_STEREO_COUNT>
0

> <PUBCHEM_BOND_DEF_STEREO_COUNT>
0

> <PUBCHEM_BOND_UDEF_STEREO_COUNT>
0

> <PUBCHEM_ISOTOPIC_ATOM_COUNT>
0

> <PUBCHEM_COMPONENT_COUNT>
1

> <PUBCHEM_CACTVS_TAUTO_COUNT>
1

> <PUBCHEM_COORDINATE_TYPE>
1
5
255

> <PUBCHEM_BONDANNOTATIONS>
10  14  8
11  12  8
13  15  8
14  15  8
2  7  5
4  6  8
4  9  8
6  10  8
6  8  8
8  11  8
8  13  8
9  12  8

$$$$
