53014593
  -OEChem-11301218042D

 32 33  0     0  0  0  0  0  0999 V2000
    3.7320   -1.6970    0.0000 O   0  0  0  0  0  0  0  0  0  0  0  0
    9.0084    1.1077    0.0000 N   0  0  0  0  0  0  0  0  0  0  0  0
    2.8660   -0.1970    0.0000 N   0  0  0  0  0  0  0  0  0  0  0  0
    5.4641   -0.6970    0.0000 C   0  0  0  0  0  0  0  0  0  0  0  0
    6.3301   -0.1970    0.0000 C   0  0  0  0  0  0  0  0  0  0  0  0
    4.5981   -0.1970    0.0000 C   0  0  0  0  0  0  0  0  0  0  0  0
    8.0622   -0.1970    0.0000 C   0  0  0  0  0  0  0  0  0  0  0  0
    8.0622    0.8030    0.0000 C   0  0  0  0  0  0  0  0  0  0  0  0
    7.1962   -0.6970    0.0000 C   0  0  0  0  0  0  0  0  0  0  0  0
    6.3301    0.8030    0.0000 C   0  0  0  0  0  0  0  0  0  0  0  0
    7.1962    1.3030    0.0000 C   0  0  0  0  0  0  0  0  0  0  0  0
    3.7320   -0.6970    0.0000 C   0  0  0  0  0  0  0  0  0  0  0  0
    9.0084   -0.5018    0.0000 C   0  0  0  0  0  0  0  0  0  0  0  0
    9.5920    0.3030    0.0000 C   0  0  0  0  0  0  0  0  0  0  0  0
    2.0000   -0.6970    0.0000 C   0  0  0  0  0  0  0  0  0  0  0  0
    2.8660    0.8030    0.0000 C   0  0  0  0  0  0  0  0  0  0  0  0
    5.0656   -1.1720    0.0000 H   0  0  0  0  0  0  0  0  0  0  0  0
    5.8626   -1.1720    0.0000 H   0  0  0  0  0  0  0  0  0  0  0  0
    4.9966    0.2779    0.0000 H   0  0  0  0  0  0  0  0  0  0  0  0
    4.1996    0.2779    0.0000 H   0  0  0  0  0  0  0  0  0  0  0  0
    7.1962   -1.3170    0.0000 H   0  0  0  0  0  0  0  0  0  0  0  0
    5.7932    1.1130    0.0000 H   0  0  0  0  0  0  0  0  0  0  0  0
    7.1962    1.9230    0.0000 H   0  0  0  0  0  0  0  0  0  0  0  0
    9.2010   -1.0911    0.0000 H   0  0  0  0  0  0  0  0  0  0  0  0
    9.2010    1.6970    0.0000 H   0  0  0  0  0  0  0  0  0  0  0  0
   10.2120    0.3030    0.0000 H   0  0  0  0  0  0  0  0  0  0  0  0
    3.4860    0.8030    0.0000 H   0  0  0  0  0  0  0  0  0  0  0  0
    2.8660    1.4230    0.0000 H   0  0  0  0  0  0  0  0  0  0  0  0
    1.6900   -0.1601    0.0000 H   0  0  0  0  0  0  0  0  0  0  0  0
    1.4631   -1.0070    0.0000 H   0  0  0  0  0  0  0  0  0  0  0  0
    2.3100   -1.2340    0.0000 H   0  0  0  0  0  0  0  0  0  0  0  0
    2.2460    0.8030    0.0000 H   0  0  0  0  0  0  0  0  0  0  0  0
  1 12  2  0  0  0  0
  2  8  1  0  0  0  0
  2 14  1  0  0  0  0
  2 25  1  0  0  0  0
  3 12  1  0  0  0  0
  3 15  1  0  0  0  0
  3 16  1  0  0  0  0
  4  5  1  0  0  0  0
  4  6  1  0  0  0  0
  4 17  1  0  0  0  0
  4 18  1  0  0  0  0
  5  9  2  0  0  0  0
  5 10  1  0  0  0  0
  6 12  1  0  0  0  0
  6 19  1  0  0  0  0
  6 20  1  0  0  0  0
  7  8  2  0  0  0  0
  7  9  1  0  0  0  0
  7 13  1  0  0  0  0
  8 11  1  0  0  0  0
  9 21  1  0  0  0  0
 10 11  2  0  0  0  0
 10 22  1  0  0  0  0
 11 23  1  0  0  0  0
 13 14  2  0  0  0  0
 13 24  1  0  0  0  0
 14 26  1  0  0  0  0
 15 29  1  0  0  0  0
 15 30  1  0  0  0  0
 15 31  1  0  0  0  0
 16 27  1  0  0  0  0
 16 28  1  0  0  0  0
 16 32  1  0  0  0  0
M  END
> <PUBCHEM_COMPOUND_CID>
53014593

> <PUBCHEM_COMPOUND_CANONICALIZED>
1

> <PUBCHEM_CACTVS_COMPLEXITY>
252

> <PUBCHEM_CACTVS_HBOND_ACCEPTOR>
1

> <PUBCHEM_CACTVS_HBOND_DONOR>
1

> <PUBCHEM_CACTVS_ROTATABLE_BOND>
3

> <PUBCHEM_CACTVS_SUBSKEYS>
AAADceBzIAAAAAAAAAAAAAAAAAAAAWAAAAAwAAAAAAAAAFgB8AAAHgAQAAAADAjBngQ+wPPJkACoAzV3VACCgCAxAiAI2aE4ZJgIIPLAkZGEIAhgkgDIyAcYiMCOCAACAAACAAAQAAQAAAQAAAAAAAAAAA==

> <PUBCHEM_IUPAC_OPENEYE_NAME>
3-(1H-indol-5-yl)-N,N-dimethyl-propanamide

> <PUBCHEM_IUPAC_CAS_NAME>
3-(1H-indol-5-yl)-N,N-dimethylpropanamide

> <PUBCHEM_IUPAC_NAME>
3-(1H-indol-5-yl)-N,N-dimethylpropanamide

> <PUBCHEM_IUPAC_SYSTEMATIC_NAME>
3-(1H-indol-5-yl)-N,N-dimethyl-propanamide

> <PUBCHEM_IUPAC_TRADITIONAL_NAME>
3-(1H-indol-5-yl)-N,N-dimethyl-propionamide

> <PUBCHEM_IUPAC_INCHI>
InChI=1S/C13H16N2O/c1-15(2)13(16)6-4-10-3-5-12-11(9-10)7-8-14-12/h3,5,7-9,14H,4,6H2,1-2H3

> <PUBCHEM_IUPAC_INCHIKEY>
WVBFUTYWDRYALK-UHFFFAOYSA-N

> <PUBCHEM_XLOGP3>
2

> <PUBCHEM_EXACT_MASS>
216.126263

> <PUBCHEM_MOLECULAR_FORMULA>
C13H16N2O

> <PUBCHEM_MOLECULAR_WEIGHT>
216.27894

> <PUBCHEM_OPENEYE_CAN_SMILES>
CN(C)C(=O)CCC1=CC2=C(C=C1)NC=C2

> <PUBCHEM_OPENEYE_ISO_SMILES>
CN(C)C(=O)CCC1=CC2=C(C=C1)NC=C2

> <PUBCHEM_CACTVS_TPSA>
36.1

> <PUBCHEM_MONOISOTOPIC_WEIGHT>
216.126263

> <PUBCHEM_TOTAL_CHARGE>
0

> <PUBCHEM_HEAVY_ATOM_COUNT>
16

> <PUBCHEM_ATOM_DEF_STEREO_COUNT>
0

> <PUBCHEM_ATOM_UDEF_STEREO_COUNT>
0

> <PUBCHEM_BOND_DEF_STEREO_COUNT>
0

> <PUBCHEM_BOND_UDEF_STEREO_COUNT>
0

> <PUBCHEM_ISOTOPIC_ATOM_COUNT>
0

> <PUBCHEM_COMPONENT_COUNT>
1

> <PUBCHEM_CACTVS_TAUTO_COUNT>
1

> <PUBCHEM_COORDINATE_TYPE>
1
5
255

> <PUBCHEM_BONDANNOTATIONS>
10  11  8
13  14  8
2  14  8
2  8  8
5  10  8
5  9  8
7  13  8
7  8  8
7  9  8
8  11  8

$$$$
53014637
  -OEChem-11301218042D

 32 33  0     0  0  0  0  0  0999 V2000
    3.7320    1.5000    0.0000 O   0  0  0  0  0  0  0  0  0  0  0  0
    9.0084    0.3047    0.0000 N   0  0  0  0  0  0  0  0  0  0  0  0
    2.8660    0.0000    0.0000 N   0  0  0  0  0  0  0  0  0  0  0  0
    5.4641    0.5000    0.0000 C   0  0  0  0  0  0  0  0  0  0  0  0
    6.3301    0.0000    0.0000 C   0  0  0  0  0  0  0  0  0  0  0  0
    4.5981    0.0000    0.0000 C   0  0  0  0  0  0  0  0  0  0  0  0
    8.0622    0.0000    0.0000 C   0  0  0  0  0  0  0  0  0  0  0  0
    8.0622   -1.0000    0.0000 C   0  0  0  0  0  0  0  0  0  0  0  0
    7.1962    0.5000    0.0000 C   0  0  0  0  0  0  0  0  0  0  0  0
    6.3301   -1.0000    0.0000 C   0  0  0  0  0  0  0  0  0  0  0  0
    7.1962   -1.5000    0.0000 C   0  0  0  0  0  0  0  0  0  0  0  0
    3.7320    0.5000    0.0000 C   0  0  0  0  0  0  0  0  0  0  0  0
    9.0084   -1.3047    0.0000 C   0  0  0  0  0  0  0  0  0  0  0  0
    9.5920   -0.5000    0.0000 C   0  0  0  0  0  0  0  0  0  0  0  0
    2.0000    0.5000    0.0000 C   0  0  0  0  0  0  0  0  0  0  0  0
    2.8660   -1.0000    0.0000 C   0  0  0  0  0  0  0  0  0  0  0  0
    5.8626    0.9749    0.0000 H   0  0  0  0  0  0  0  0  0  0  0  0
    5.0656    0.9749    0.0000 H   0  0  0  0  0  0  0  0  0  0  0  0
    4.1996   -0.4749    0.0000 H   0  0  0  0  0  0  0  0  0  0  0  0
    4.9966   -0.4749    0.0000 H   0  0  0  0  0  0  0  0  0  0  0  0
    7.1962    1.1200    0.0000 H   0  0  0  0  0  0  0  0  0  0  0  0
    5.7932   -1.3100    0.0000 H   0  0  0  0  0  0  0  0  0  0  0  0
    7.1962   -2.1200    0.0000 H   0  0  0  0  0  0  0  0  0  0  0  0
    9.2010    0.8941    0.0000 H   0  0  0  0  0  0  0  0  0  0  0  0
    9.2010   -1.8940    0.0000 H   0  0  0  0  0  0  0  0  0  0  0  0
   10.2120   -0.5000    0.0000 H   0  0  0  0  0  0  0  0  0  0  0  0
    2.2460   -1.0000    0.0000 H   0  0  0  0  0  0  0  0  0  0  0  0
    2.8660   -1.6200    0.0000 H   0  0  0  0  0  0  0  0  0  0  0  0
    2.3100    1.0369    0.0000 H   0  0  0  0  0  0  0  0  0  0  0  0
    1.4631    0.8100    0.0000 H   0  0  0  0  0  0  0  0  0  0  0  0
    1.6900   -0.0369    0.0000 H   0  0  0  0  0  0  0  0  0  0  0  0
    3.4860   -1.0000    0.0000 H   0  0  0  0  0  0  0  0  0  0  0  0
  1 12  2  0  0  0  0
  2  7  1  0  0  0  0
  2 14  1  0  0  0  0
  2 24  1  0  0  0  0
  3 12  1  0  0  0  0
  3 15  1  0  0  0  0
  3 16  1  0  0  0  0
  4  5  1  0  0  0  0
  4  6  1  0  0  0  0
  4 17  1  0  0  0  0
  4 18  1  0  0  0  0
  5  9  2  0  0  0  0
  5 10  1  0  0  0  0
  6 12  1  0  0  0  0
  6 19  1  0  0  0  0
  6 20  1  0  0  0  0
  7  8  2  0  0  0  0
  7  9  1  0  0  0  0
  8 11  1  0  0  0  0
  8 13  1  0  0  0  0
  9 21  1  0  0  0  0
 10 11  2  0  0  0  0
 10 22  1  0  0  0  0
 11 23  1  0  0  0  0
 13 14  2  0  0  0  0
 13 25  1  0  0  0  0
 14 26  1  0  0  0  0
 15 29  1  0  0  0  0
 15 30  1  0  0  0  0
 15 31  1  0  0  0  0
 16 27  1  0  0  0  0
 16 28  1  0  0  0  0
 16 32  1  0  0  0  0
M  END
> <PUBCHEM_COMPOUND_CID>
53014637

> <PUBCHEM_COMPOUND_CANONICALIZED>
1

> <PUBCHEM_CACTVS_COMPLEXITY>
252

> <PUBCHEM_CACTVS_HBOND_ACCEPTOR>
1

> <PUBCHEM_CACTVS_HBOND_DONOR>
1

> <PUBCHEM_CACTVS_ROTATABLE_BOND>
3

> <PUBCHEM_CACTVS_SUBSKEYS>
AAADceBzIAAAAAAAAAAAAAAAAAAAAWAAAAAwAAAAAAAAAFgB8AAAHgAQAAAADAjBngQ+wPPJkACoAzV3VACCgCAxAiAI2aE4ZJgIIPLAkZGEIAhgkgDIyAcYiMCOQAAAQAACAACAAACAAAQAAAAAAAAAAA==

> <PUBCHEM_IUPAC_OPENEYE_NAME>
3-(1H-indol-6-yl)-N,N-dimethyl-propanamide

> <PUBCHEM_IUPAC_CAS_NAME>
3-(1H-indol-6-yl)-N,N-dimethylpropanamide

> <PUBCHEM_IUPAC_NAME>
3-(1H-indol-6-yl)-N,N-dimethylpropanamide

> <PUBCHEM_IUPAC_SYSTEMATIC_NAME>
3-(1H-indol-6-yl)-N,N-dimethyl-propanamide

> <PUBCHEM_IUPAC_TRADITIONAL_NAME>
3-(1H-indol-6-yl)-N,N-dimethyl-propionamide

> <PUBCHEM_IUPAC_INCHI>
InChI=1S/C13H16N2O/c1-15(2)13(16)6-4-10-3-5-11-7-8-14-12(11)9-10/h3,5,7-9,14H,4,6H2,1-2H3

> <PUBCHEM_IUPAC_INCHIKEY>
UYCXCCZXKRFIEW-UHFFFAOYSA-N

> <PUBCHEM_XLOGP3>
2.6

> <PUBCHEM_EXACT_MASS>
216.126263

> <PUBCHEM_MOLECULAR_FORMULA>
C13H16N2O

> <PUBCHEM_MOLECULAR_WEIGHT>
216.27894

> <PUBCHEM_OPENEYE_CAN_SMILES>
CN(C)C(=O)CCC1=CC2=C(C=C1)C=CN2

> <PUBCHEM_OPENEYE_ISO_SMILES>
CN(C)C(=O)CCC1=CC2=C(C=C1)C=CN2

> <PUBCHEM_CACTVS_TPSA>
36.1

> <PUBCHEM_MONOISOTOPIC_WEIGHT>
216.126263

> <PUBCHEM_TOTAL_CHARGE>
0

> <PUBCHEM_HEAVY_ATOM_COUNT>
16

> <PUBCHEM_ATOM_DEF_STEREO_COUNT>
0

> <PUBCHEM_ATOM_UDEF_STEREO_COUNT>
0

> <PUBCHEM_BOND_DEF_STEREO_COUNT>
0

> <PUBCHEM_BOND_UDEF_STEREO_COUNT>
0

> <PUBCHEM_ISOTOPIC_ATOM_COUNT>
0

> <PUBCHEM_COMPONENT_COUNT>
1

> <PUBCHEM_CACTVS_TAUTO_COUNT>
1

> <PUBCHEM_COORDINATE_TYPE>
1
5
255

> <PUBCHEM_BONDANNOTATIONS>
10  11  8
13  14  8
2  14  8
2  7  8
5  10  8
5  9  8
7  8  8
7  9  8
8  11  8
8  13  8

$$$$
53016872
  -OEChem-11301218042D

 28 29  0     0  0  0  0  0  0999 V2000
    2.0000    1.9400    0.0000 O   0  0  0  0  0  0  0  0  0  0  0  0
    3.7320   -1.0600    0.0000 N   0  0  0  0  0  0  0  0  0  0  0  0
    3.7320    1.9400    0.0000 N   0  0  0  0  0  0  0  0  0  0  0  0
    2.8660    0.4400    0.0000 N   0  0  0  0  0  0  0  0  0  0  0  0
    2.8660   -1.5600    0.0000 C   0  0  0  0  0  0  0  0  0  0  0  0
    4.5981    0.4400    0.0000 C   0  0  0  0  0  0  0  0  0  0  0  0
    3.7320   -0.0600    0.0000 C   0  0  0  0  0  0  0  0  0  0  0  0
    4.5981    1.4400    0.0000 C   0  0  0  0  0  0  0  0  0  0  0  0
    2.8660   -2.5600    0.0000 C   0  0  0  0  0  0  0  0  0  0  0  0
    2.0000   -1.0600    0.0000 C   0  0  0  0  0  0  0  0  0  0  0  0
    5.4920   -0.0947    0.0000 C   0  0  0  0  0  0  0  0  0  0  0  0
    5.4920    1.9747    0.0000 C   0  0  0  0  0  0  0  0  0  0  0  0
    2.8660    1.4400    0.0000 C   0  0  0  0  0  0  0  0  0  0  0  0
    6.3981    0.4192    0.0000 C   0  0  0  0  0  0  0  0  0  0  0  0
    6.3981    1.4608    0.0000 C   0  0  0  0  0  0  0  0  0  0  0  0
    2.8660   -0.9400    0.0000 H   0  0  0  0  0  0  0  0  0  0  0  0
    4.2690   -1.3700    0.0000 H   0  0  0  0  0  0  0  0  0  0  0  0
    2.3100   -0.5231    0.0000 H   0  0  0  0  0  0  0  0  0  0  0  0
    1.4631   -0.7500    0.0000 H   0  0  0  0  0  0  0  0  0  0  0  0
    2.2460   -2.5600    0.0000 H   0  0  0  0  0  0  0  0  0  0  0  0
    2.8660   -3.1800    0.0000 H   0  0  0  0  0  0  0  0  0  0  0  0
    3.4860   -2.5600    0.0000 H   0  0  0  0  0  0  0  0  0  0  0  0
    1.6900   -1.5969    0.0000 H   0  0  0  0  0  0  0  0  0  0  0  0
    5.4848   -0.7146    0.0000 H   0  0  0  0  0  0  0  0  0  0  0  0
    3.7320    2.5600    0.0000 H   0  0  0  0  0  0  0  0  0  0  0  0
    5.4848    2.5946    0.0000 H   0  0  0  0  0  0  0  0  0  0  0  0
    6.9338    0.1071    0.0000 H   0  0  0  0  0  0  0  0  0  0  0  0
    6.9338    1.7729    0.0000 H   0  0  0  0  0  0  0  0  0  0  0  0
  1 13  2  0  0  0  0
  2  5  1  0  0  0  0
  2  7  1  0  0  0  0
  2 17  1  0  0  0  0
  3  8  1  0  0  0  0
  3 13  1  0  0  0  0
  3 25  1  0  0  0  0
  4  7  2  0  0  0  0
  4 13  1  0  0  0  0
  5  9  1  0  0  0  0
  5 10  1  0  0  0  0
  5 16  1  0  0  0  0
  6  7  1  0  0  0  0
  6  8  1  0  0  0  0
  6 11  2  0  0  0  0
  8 12  2  0  0  0  0
  9 20  1  0  0  0  0
  9 21  1  0  0  0  0
  9 22  1  0  0  0  0
 10 18  1  0  0  0  0
 10 19  1  0  0  0  0
 10 23  1  0  0  0  0
 11 14  1  0  0  0  0
 11 24  1  0  0  0  0
 12 15  1  0  0  0  0
 12 26  1  0  0  0  0
 14 15  2  0  0  0  0
 14 27  1  0  0  0  0
 15 28  1  0  0  0  0
M  END
> <PUBCHEM_COMPOUND_CID>
53016872

> <PUBCHEM_COMPOUND_CANONICALIZED>
1

> <PUBCHEM_CACTVS_COMPLEXITY>
286

> <PUBCHEM_CACTVS_HBOND_ACCEPTOR>
1

> <PUBCHEM_CACTVS_HBOND_DONOR>
2

> <PUBCHEM_CACTVS_ROTATABLE_BOND>
2

> <PUBCHEM_CACTVS_SUBSKEYS>
AAADccBzIAAAAAAAAAAAAAAAAAAAAAAAAAAwQAAAAAAAAACBAAAAHgAQAAAADCjBGAQzwILAAACoAiZidACCAAEhAgAJiIAoZJiIIKLA2ZGEIAhglALIyCcQgAAOAAAAAAACAAAAAAAAAAQAAAAAAAAAAA==

> <PUBCHEM_IUPAC_OPENEYE_NAME>
4-(isopropylamino)-1H-quinazolin-2-one

> <PUBCHEM_IUPAC_CAS_NAME>
4-(propan-2-ylamino)-1H-quinazolin-2-one

> <PUBCHEM_IUPAC_NAME>
4-(propan-2-ylamino)-1H-quinazolin-2-one

> <PUBCHEM_IUPAC_SYSTEMATIC_NAME>
4-(propan-2-ylamino)-1H-quinazolin-2-one

> <PUBCHEM_IUPAC_TRADITIONAL_NAME>
4-(isopropylamino)-1H-quinazolin-2-one

> <PUBCHEM_IUPAC_INCHI>
InChI=1S/C11H13N3O/c1-7(2)12-10-8-5-3-4-6-9(8)13-11(15)14-10/h3-7H,1-2H3,(H2,12,13,14,15)

> <PUBCHEM_IUPAC_INCHIKEY>
BFGDPIUNFRGUIZ-UHFFFAOYSA-N

> <PUBCHEM_XLOGP3>
1.8

> <PUBCHEM_EXACT_MASS>
203.105862

> <PUBCHEM_MOLECULAR_FORMULA>
C11H13N3O

> <PUBCHEM_MOLECULAR_WEIGHT>
203.24042

> <PUBCHEM_OPENEYE_CAN_SMILES>
CC(C)NC1=NC(=O)NC2=CC=CC=C21

> <PUBCHEM_OPENEYE_ISO_SMILES>
CC(C)NC1=NC(=O)NC2=CC=CC=C21

> <PUBCHEM_CACTVS_TPSA>
53.5

> <PUBCHEM_MONOISOTOPIC_WEIGHT>
203.105862

> <PUBCHEM_TOTAL_CHARGE>
0

> <PUBCHEM_HEAVY_ATOM_COUNT>
15

> <PUBCHEM_ATOM_DEF_STEREO_COUNT>
0

> <PUBCHEM_ATOM_UDEF_STEREO_COUNT>
0

> <PUBCHEM_BOND_DEF_STEREO_COUNT>
0

> <PUBCHEM_BOND_UDEF_STEREO_COUNT>
0

> <PUBCHEM_ISOTOPIC_ATOM_COUNT>
0

> <PUBCHEM_COMPONENT_COUNT>
1

> <PUBCHEM_CACTVS_TAUTO_COUNT>
9

> <PUBCHEM_COORDINATE_TYPE>
1
5
255

> <PUBCHEM_BONDANNOTATIONS>
11  14  8
12  15  8
14  15  8
3  13  8
3  8  8
4  13  8
4  7  8
6  11  8
6  7  8
6  8  8
8  12  8

$$$$
