22525296
  -OEChem-11301217312D

 54 57  0     1  0  0  0  0  0999 V2000
    2.5381   -1.2493    0.0000 O   0  0  0  0  0  0  0  0  0  0  0  0
    6.5124    0.2657    0.0000 N   0  3  0  0  0  0  0  0  0  0  0  0
    6.0682   -1.2252    0.0000 C   0  0  1  0  0  0  0  0  0  0  0  0
    6.9343   -0.7252    0.0000 C   0  0  2  0  0  0  0  0  0  0  0  0
    6.9343    0.2748    0.0000 C   0  0  1  0  0  0  0  0  0  0  0  0
    5.8652   -0.8553    0.0000 C   0  0  0  0  0  0  0  0  0  0  0  0
    5.7815   -0.0596    0.0000 C   0  0  0  0  0  0  0  0  0  0  0  0
    6.0522   -2.2667    0.0000 C   0  0  0  0  0  0  0  0  0  0  0  0
    7.8443   -1.2320    0.0000 C   0  0  0  0  0  0  0  0  0  0  0  0
    6.0682    0.7748    0.0000 C   0  0  0  0  0  0  0  0  0  0  0  0
    5.2022   -0.7252    0.0000 C   0  0  0  0  0  0  0  0  0  0  0  0
    6.9502   -2.7944    0.0000 C   0  0  0  0  0  0  0  0  0  0  0  0
    5.2022    0.2748    0.0000 C   0  0  0  0  0  0  0  0  0  0  0  0
    7.8523   -2.2736    0.0000 C   0  0  0  0  0  0  0  0  0  0  0  0
    6.5473    1.2651    0.0000 C   0  0  0  0  0  0  0  0  0  0  0  0
    7.1815    1.0089    0.0000 C   0  0  0  0  0  0  0  0  0  0  0  0
    4.3083   -1.2598    0.0000 C   0  0  0  0  0  0  0  0  0  0  0  0
    4.3083    0.8095    0.0000 C   0  0  0  0  0  0  0  0  0  0  0  0
    5.6992    1.7950    0.0000 C   0  0  0  0  0  0  0  0  0  0  0  0
    8.1596    0.8010    0.0000 C   0  0  0  0  0  0  0  0  0  0  0  0
    3.4022   -0.7460    0.0000 C   0  0  0  0  0  0  0  0  0  0  0  0
    3.4022    0.2956    0.0000 C   0  0  0  0  0  0  0  0  0  0  0  0
    5.7341    2.7944    0.0000 C   0  0  0  0  0  0  0  0  0  0  0  0
    8.8288    1.5441    0.0000 C   0  0  0  0  0  0  0  0  0  0  0  0
    7.6704   -0.3002    0.0000 H   0  0  0  0  0  0  0  0  0  0  0  0
    7.7843    0.2748    0.0000 H   0  0  0  0  0  0  0  0  0  0  0  0
    5.2704   -0.6801    0.0000 H   0  0  0  0  0  0  0  0  0  0  0  0
    6.4568   -0.6700    0.0000 H   0  0  0  0  0  0  0  0  0  0  0  0
    5.5899    0.5300    0.0000 H   0  0  0  0  0  0  0  0  0  0  0  0
    5.1751   -0.1886    0.0000 H   0  0  0  0  0  0  0  0  0  0  0  0
    5.4431   -2.1512    0.0000 H   0  0  0  0  0  0  0  0  0  0  0  0
    5.8342   -2.8471    0.0000 H   0  0  0  0  0  0  0  0  0  0  0  0
    8.4559   -1.3334    0.0000 H   0  0  0  0  0  0  0  0  0  0  0  0
    8.0488   -0.6467    0.0000 H   0  0  0  0  0  0  0  0  0  0  0  0
    6.4668    1.2498    0.0000 H   0  0  0  0  0  0  0  0  0  0  0  0
    5.6697    1.2498    0.0000 H   0  0  0  0  0  0  0  0  0  0  0  0
    6.5493   -3.2673    0.0000 H   0  0  0  0  0  0  0  0  0  0  0  0
    7.3475   -3.2704    0.0000 H   0  0  0  0  0  0  0  0  0  0  0  0
    8.0659   -2.8557    0.0000 H   0  0  0  0  0  0  0  0  0  0  0  0
    8.4623   -2.1628    0.0000 H   0  0  0  0  0  0  0  0  0  0  0  0
    7.1537    1.1362    0.0000 H   0  0  0  0  0  0  0  0  0  0  0  0
    6.7795    1.8400    0.0000 H   0  0  0  0  0  0  0  0  0  0  0  0
    7.4138    1.5837    0.0000 H   0  0  0  0  0  0  0  0  0  0  0  0
    6.6557    1.3374    0.0000 H   0  0  0  0  0  0  0  0  0  0  0  0
    4.3154   -1.8798    0.0000 H   0  0  0  0  0  0  0  0  0  0  0  0
    4.3154    1.4294    0.0000 H   0  0  0  0  0  0  0  0  0  0  0  0
    5.1518    1.5040    0.0000 H   0  0  0  0  0  0  0  0  0  0  0  0
    8.3512    0.2113    0.0000 H   0  0  0  0  0  0  0  0  0  0  0  0
    2.8665    0.6077    0.0000 H   0  0  0  0  0  0  0  0  0  0  0  0
    6.2816    3.0855    0.0000 H   0  0  0  0  0  0  0  0  0  0  0  0
    5.2083    3.1230    0.0000 H   0  0  0  0  0  0  0  0  0  0  0  0
    9.4352    1.4152    0.0000 H   0  0  0  0  0  0  0  0  0  0  0  0
    8.6372    2.1338    0.0000 H   0  0  0  0  0  0  0  0  0  0  0  0
    2.0000   -0.9414    0.0000 H   0  0  0  0  0  0  0  0  0  0  0  0
  1 21  1  0  0  0  0
  1 54  1  0  0  0  0
  2  5  1  0  0  0  0
  2  7  1  0  0  0  0
  2 15  1  0  0  0  0
  2 16  1  0  0  0  0
  3  4  1  0  0  0  0
  3  6  1  0  0  0  0
  3  8  1  6  0  0  0
  3 11  1  0  0  0  0
  4  5  1  0  0  0  0
  4  9  1  0  0  0  0
  4 25  1  1  0  0  0
  5 10  1  0  0  0  0
  5 26  1  1  0  0  0
  6  7  1  0  0  0  0
  6 27  1  0  0  0  0
  6 28  1  0  0  0  0
  7 29  1  0  0  0  0
  7 30  1  0  0  0  0
  8 12  1  0  0  0  0
  8 31  1  0  0  0  0
  8 32  1  0  0  0  0
  9 14  1  0  0  0  0
  9 33  1  0  0  0  0
  9 34  1  0  0  0  0
 10 13  1  0  0  0  0
 10 35  1  0  0  0  0
 10 36  1  0  0  0  0
 11 13  2  0  0  0  0
 11 17  1  0  0  0  0
 12 14  1  0  0  0  0
 12 37  1  0  0  0  0
 12 38  1  0  0  0  0
 13 18  1  0  0  0  0
 14 39  1  0  0  0  0
 14 40  1  0  0  0  0
 15 19  1  0  0  0  0
 15 41  1  0  0  0  0
 15 42  1  0  0  0  0
 16 20  1  0  0  0  0
 16 43  1  0  0  0  0
 16 44  1  0  0  0  0
 17 21  2  0  0  0  0
 17 45  1  0  0  0  0
 18 22  2  0  0  0  0
 18 46  1  0  0  0  0
 19 23  2  0  0  0  0
 19 47  1  0  0  0  0
 20 24  2  0  0  0  0
 20 48  1  0  0  0  0
 21 22  1  0  0  0  0
 22 49  1  0  0  0  0
 23 50  1  0  0  0  0
 23 51  1  0  0  0  0
 24 52  1  0  0  0  0
 24 53  1  0  0  0  0
M  CHG  1   2   1
M  END
> <PUBCHEM_COMPOUND_CID>
22525296

> <PUBCHEM_COMPOUND_CANONICALIZED>
1

> <PUBCHEM_CACTVS_COMPLEXITY>
490

> <PUBCHEM_CACTVS_HBOND_ACCEPTOR>
1

> <PUBCHEM_CACTVS_HBOND_DONOR>
1

> <PUBCHEM_CACTVS_ROTATABLE_BOND>
4

> <PUBCHEM_CACTVS_SUBSKEYS>
AAADceB6IAAAAAAAAAAAAAAAAAAAAAAAAAA8YMEAAAAWAADxAAAAHgAACAAADyzBmAQwBoMAAgCAAiBCAACCAAAgIAAIiAAOCIgIJiKCkROEcAAkwBGImAeQwPAPoAABAAAQAADQAAaAACQAAAAAAAAAAA==

> <PUBCHEM_IUPAC_INCHI>
InChI=1S/C22H29NO/c1-3-12-23(13-4-2)14-11-22-10-6-5-7-19(22)21(23)15-17-8-9-18(24)16-20(17)22/h3-4,8-9,16,19,21H,1-2,5-7,10-15H2/p+1/t19-,21+,22-/m0/s1

> <PUBCHEM_IUPAC_INCHIKEY>
IJAXKIVKIXWGGW-NNWRFLSQSA-O

> <PUBCHEM_XLOGP3>
4.4

> <PUBCHEM_EXACT_MASS>
324.23274

> <PUBCHEM_MOLECULAR_FORMULA>
C22H30NO+

> <PUBCHEM_MOLECULAR_WEIGHT>
324.4797

> <PUBCHEM_OPENEYE_CAN_SMILES>
C=CC[N+]1(CCC23CCCCC2C1CC4=C3C=C(C=C4)O)CC=C

> <PUBCHEM_OPENEYE_ISO_SMILES>
C=CC[N+]1(CC[C@@]23CCCC[C@H]2[C@H]1CC4=C3C=C(C=C4)O)CC=C

> <PUBCHEM_CACTVS_TPSA>
20.2

> <PUBCHEM_MONOISOTOPIC_WEIGHT>
324.23274

> <PUBCHEM_TOTAL_CHARGE>
1

> <PUBCHEM_HEAVY_ATOM_COUNT>
24

> <PUBCHEM_ATOM_DEF_STEREO_COUNT>
3

> <PUBCHEM_ATOM_UDEF_STEREO_COUNT>
0

> <PUBCHEM_BOND_DEF_STEREO_COUNT>
0

> <PUBCHEM_BOND_UDEF_STEREO_COUNT>
0

> <PUBCHEM_ISOTOPIC_ATOM_COUNT>
0

> <PUBCHEM_COMPONENT_COUNT>
1

> <PUBCHEM_CACTVS_TAUTO_COUNT>
3

> <PUBCHEM_COORDINATE_TYPE>
1
5
255

> <PUBCHEM_BONDANNOTATIONS>
11  13  8
11  17  8
13  18  8
17  21  8
18  22  8
21  22  8
3  8  6
4  25  5
5  26  5

$$$$
22525422
  -OEChem-11301217312D

 43 46  0     1  0  0  0  0  0999 V2000
    2.5381   -0.4801    0.0000 O   0  0  0  0  0  0  0  0  0  0  0  0
    6.5124    1.0350    0.0000 N   0  3  3  0  0  0  0  0  0  0  0  0
    6.0682   -0.4560    0.0000 C   0  0  2  0  0  0  0  0  0  0  0  0
    6.9343    0.0440    0.0000 C   0  0  2  0  0  0  0  0  0  0  0  0
    6.9343    1.0440    0.0000 C   0  0  1  0  0  0  0  0  0  0  0  0
    5.8652   -0.0860    0.0000 C   0  0  0  0  0  0  0  0  0  0  0  0
    6.0522   -1.4975    0.0000 C   0  0  0  0  0  0  0  0  0  0  0  0
    7.8443   -0.4628    0.0000 C   0  0  0  0  0  0  0  0  0  0  0  0
    5.7815    0.7096    0.0000 C   0  0  0  0  0  0  0  0  0  0  0  0
    5.2022    0.0440    0.0000 C   0  0  0  0  0  0  0  0  0  0  0  0
    6.0682    1.5440    0.0000 C   0  0  0  0  0  0  0  0  0  0  0  0
    6.9502   -2.0252    0.0000 C   0  0  0  0  0  0  0  0  0  0  0  0
    7.8523   -1.5044    0.0000 C   0  0  0  0  0  0  0  0  0  0  0  0
    5.2022    1.0440    0.0000 C   0  0  0  0  0  0  0  0  0  0  0  0
    6.3732    2.0252    0.0000 C   0  0  0  0  0  0  0  0  0  0  0  0
    4.3083   -0.4906    0.0000 C   0  0  0  0  0  0  0  0  0  0  0  0
    4.3083    1.5787    0.0000 C   0  0  0  0  0  0  0  0  0  0  0  0
    3.4022    0.0232    0.0000 C   0  0  0  0  0  0  0  0  0  0  0  0
    3.4022    1.0648    0.0000 C   0  0  0  0  0  0  0  0  0  0  0  0
    7.6704    0.4690    0.0000 H   0  0  0  0  0  0  0  0  0  0  0  0
    7.6704    1.4690    0.0000 H   0  0  0  0  0  0  0  0  0  0  0  0
    5.2704    0.0891    0.0000 H   0  0  0  0  0  0  0  0  0  0  0  0
    6.4568    0.0992    0.0000 H   0  0  0  0  0  0  0  0  0  0  0  0
    6.7446    1.6098    0.0000 H   0  0  0  0  0  0  0  0  0  0  0  0
    5.4431   -1.3820    0.0000 H   0  0  0  0  0  0  0  0  0  0  0  0
    5.8342   -2.0779    0.0000 H   0  0  0  0  0  0  0  0  0  0  0  0
    8.4559   -0.5642    0.0000 H   0  0  0  0  0  0  0  0  0  0  0  0
    8.0488    0.1225    0.0000 H   0  0  0  0  0  0  0  0  0  0  0  0
    5.5899    1.2992    0.0000 H   0  0  0  0  0  0  0  0  0  0  0  0
    5.1751    0.5807    0.0000 H   0  0  0  0  0  0  0  0  0  0  0  0
    6.4668    2.0190    0.0000 H   0  0  0  0  0  0  0  0  0  0  0  0
    5.6697    2.0190    0.0000 H   0  0  0  0  0  0  0  0  0  0  0  0
    6.5493   -2.4981    0.0000 H   0  0  0  0  0  0  0  0  0  0  0  0
    7.3475   -2.5012    0.0000 H   0  0  0  0  0  0  0  0  0  0  0  0
    8.0659   -2.0865    0.0000 H   0  0  0  0  0  0  0  0  0  0  0  0
    8.4623   -1.3936    0.0000 H   0  0  0  0  0  0  0  0  0  0  0  0
    6.9872    2.1115    0.0000 H   0  0  0  0  0  0  0  0  0  0  0  0
    6.2869    2.6392    0.0000 H   0  0  0  0  0  0  0  0  0  0  0  0
    5.7592    1.9389    0.0000 H   0  0  0  0  0  0  0  0  0  0  0  0
    4.3154   -1.1106    0.0000 H   0  0  0  0  0  0  0  0  0  0  0  0
    4.3154    2.1987    0.0000 H   0  0  0  0  0  0  0  0  0  0  0  0
    2.8665    1.3769    0.0000 H   0  0  0  0  0  0  0  0  0  0  0  0
    2.0000   -0.1722    0.0000 H   0  0  0  0  0  0  0  0  0  0  0  0
  1 18  1  0  0  0  0
  1 43  1  0  0  0  0
  2  5  1  0  0  0  0
  2  9  1  0  0  0  0
  2 15  1  0  0  0  0
  2 24  1  0  0  0  0
  3  4  1  0  0  0  0
  3  6  1  0  0  0  0
  3  7  1  1  0  0  0
  3 10  1  0  0  0  0
  4  5  1  0  0  0  0
  4  8  1  0  0  0  0
  4 20  1  1  0  0  0
  5 11  1  0  0  0  0
  5 21  1  1  0  0  0
  6  9  1  0  0  0  0
  6 22  1  0  0  0  0
  6 23  1  0  0  0  0
  7 12  1  0  0  0  0
  7 25  1  0  0  0  0
  7 26  1  0  0  0  0
  8 13  1  0  0  0  0
  8 27  1  0  0  0  0
  8 28  1  0  0  0  0
  9 29  1  0  0  0  0
  9 30  1  0  0  0  0
 10 14  2  0  0  0  0
 10 16  1  0  0  0  0
 11 14  1  0  0  0  0
 11 31  1  0  0  0  0
 11 32  1  0  0  0  0
 12 13  1  0  0  0  0
 12 33  1  0  0  0  0
 12 34  1  0  0  0  0
 13 35  1  0  0  0  0
 13 36  1  0  0  0  0
 14 17  1  0  0  0  0
 15 37  1  0  0  0  0
 15 38  1  0  0  0  0
 15 39  1  0  0  0  0
 16 18  2  0  0  0  0
 16 40  1  0  0  0  0
 17 19  2  0  0  0  0
 17 41  1  0  0  0  0
 18 19  1  0  0  0  0
 19 42  1  0  0  0  0
M  CHG  1   2   1
M  END
> <PUBCHEM_COMPOUND_CID>
22525422

> <PUBCHEM_COMPOUND_CANONICALIZED>
1

> <PUBCHEM_CACTVS_COMPLEXITY>
357

> <PUBCHEM_CACTVS_HBOND_ACCEPTOR>
1

> <PUBCHEM_CACTVS_HBOND_DONOR>
2

> <PUBCHEM_CACTVS_ROTATABLE_BOND>
0

> <PUBCHEM_CACTVS_SUBSKEYS>
AAADceB6IAAAAAAAAAAAAAAAAAAAAAAAAAA8YMEAAAAWAADxAAAAHgAQCAAADyzBmAQyBoPAAgCAAiBCAAACAAAgIAAIiIAOCIgIJiKCkROEcAAk0BGImAeQwPAPoAABAAAQAADQAAaAACQAAAAAAAAAAA==

> <PUBCHEM_IUPAC_INCHI>
InChI=1S/C17H23NO/c1-18-9-8-17-7-3-2-4-14(17)16(18)10-12-5-6-13(19)11-15(12)17/h5-6,11,14,16,19H,2-4,7-10H2,1H3/p+1/t14-,16+,17+/m0/s1

> <PUBCHEM_IUPAC_INCHIKEY>
JAQUASYNZVUNQP-USXIJHARSA-O

> <PUBCHEM_XLOGP3>
3.1

> <PUBCHEM_EXACT_MASS>
258.185789

> <PUBCHEM_MOLECULAR_FORMULA>
C17H24NO+

> <PUBCHEM_MOLECULAR_WEIGHT>
258.37856

> <PUBCHEM_OPENEYE_CAN_SMILES>
C[NH+]1CCC23CCCCC2C1CC4=C3C=C(C=C4)O

> <PUBCHEM_OPENEYE_ISO_SMILES>
C[NH+]1CC[C@]23CCCC[C@H]2[C@H]1CC4=C3C=C(C=C4)O

> <PUBCHEM_CACTVS_TPSA>
24.7

> <PUBCHEM_MONOISOTOPIC_WEIGHT>
258.185789

> <PUBCHEM_TOTAL_CHARGE>
1

> <PUBCHEM_HEAVY_ATOM_COUNT>
19

> <PUBCHEM_ATOM_DEF_STEREO_COUNT>
3

> <PUBCHEM_ATOM_UDEF_STEREO_COUNT>
0

> <PUBCHEM_BOND_DEF_STEREO_COUNT>
0

> <PUBCHEM_BOND_UDEF_STEREO_COUNT>
0

> <PUBCHEM_ISOTOPIC_ATOM_COUNT>
0

> <PUBCHEM_COMPONENT_COUNT>
1

> <PUBCHEM_CACTVS_TAUTO_COUNT>
3

> <PUBCHEM_COORDINATE_TYPE>
1
5
255

> <PUBCHEM_BONDANNOTATIONS>
10  14  8
10  16  8
14  17  8
16  18  8
17  19  8
18  19  8
3  7  5
4  20  5
5  21  5

$$$$
