41260425
  -OEChem-03061303122D

 58 61  0     0  0  0  0  0  0999 V2000
    6.6353   -1.0987    0.0000 O   0  0  0  0  0  0  0  0  0  0  0  0
    8.4494    1.2819    0.0000 N   0  3  0  0  0  0  0  0  0  0  0  0
    6.2781    0.5961    0.0000 N   0  0  0  0  0  0  0  0  0  0  0  0
    4.6783   -3.1206    0.0000 N   0  0  0  0  0  0  0  0  0  0  0  0
    7.5673    1.7529    0.0000 C   0  0  0  0  0  0  0  0  0  0  0  0
    8.3116    2.4207    0.0000 C   0  0  0  0  0  0  0  0  0  0  0  0
    6.6168    2.0636    0.0000 C   0  0  0  0  0  0  0  0  0  0  0  0
    8.9778    0.4329    0.0000 C   0  0  0  0  0  0  0  0  0  0  0  0
    8.9204    2.1640    0.0000 C   0  0  0  0  0  0  0  0  0  0  0  0
    7.2566    0.8024    0.0000 C   0  0  0  0  0  0  0  0  0  0  0  0
    8.1054    3.3992    0.0000 C   0  0  0  0  0  0  0  0  0  0  0  0
    6.4105    3.0421    0.0000 C   0  0  0  0  0  0  0  0  0  0  0  0
    7.1548    3.7099    0.0000 C   0  0  0  0  0  0  0  0  0  0  0  0
    9.9773    0.4661    0.0000 C   0  0  0  0  0  0  0  0  0  0  0  0
    9.9198    2.1972    0.0000 C   0  0  0  0  0  0  0  0  0  0  0  0
   10.4483    1.3482    0.0000 C   0  0  0  0  0  0  0  0  0  0  0  0
    5.9674   -0.3544    0.0000 C   0  0  0  0  0  0  0  0  0  0  0  0
    4.9889   -0.5606    0.0000 C   0  0  0  0  0  0  0  0  0  0  0  0
    4.6783   -1.5111    0.0000 C   0  0  0  0  0  0  0  0  0  0  0  0
    3.7320   -1.8158    0.0000 C   0  0  0  0  0  0  0  0  0  0  0  0
    5.2619   -2.3158    0.0000 C   0  0  0  0  0  0  0  0  0  0  0  0
    3.7320   -2.8158    0.0000 C   0  0  0  0  0  0  0  0  0  0  0  0
    2.8660   -1.3158    0.0000 C   0  0  0  0  0  0  0  0  0  0  0  0
    2.8660   -3.3158    0.0000 C   0  0  0  0  0  0  0  0  0  0  0  0
    2.0000   -1.8158    0.0000 C   0  0  0  0  0  0  0  0  0  0  0  0
    2.0000   -2.8158    0.0000 C   0  0  0  0  0  0  0  0  0  0  0  0
    7.9785    0.3998    0.0000 H   0  0  0  0  0  0  0  0  0  0  0  0
    8.6392    1.8944    0.0000 H   0  0  0  0  0  0  0  0  0  0  0  0
    8.8868    2.6520    0.0000 H   0  0  0  0  0  0  0  0  0  0  0  0
    5.9971    2.0430    0.0000 H   0  0  0  0  0  0  0  0  0  0  0  0
    6.5294    1.4497    0.0000 H   0  0  0  0  0  0  0  0  0  0  0  0
    8.4026    0.2017    0.0000 H   0  0  0  0  0  0  0  0  0  0  0  0
    9.1057   -0.1737    0.0000 H   0  0  0  0  0  0  0  0  0  0  0  0
    9.0078    2.7778    0.0000 H   0  0  0  0  0  0  0  0  0  0  0  0
    8.3311    2.3566    0.0000 H   0  0  0  0  0  0  0  0  0  0  0  0
    7.2772    0.1827    0.0000 H   0  0  0  0  0  0  0  0  0  0  0  0
    7.8704    0.7150    0.0000 H   0  0  0  0  0  0  0  0  0  0  0  0
    8.7250    3.4198    0.0000 H   0  0  0  0  0  0  0  0  0  0  0  0
    8.1927    4.0130    0.0000 H   0  0  0  0  0  0  0  0  0  0  0  0
    6.0829    3.5684    0.0000 H   0  0  0  0  0  0  0  0  0  0  0  0
    5.8353    2.8108    0.0000 H   0  0  0  0  0  0  0  0  0  0  0  0
    7.4468    4.2568    0.0000 H   0  0  0  0  0  0  0  0  0  0  0  0
    6.6669    4.0925    0.0000 H   0  0  0  0  0  0  0  0  0  0  0  0
    9.8900   -0.1477    0.0000 H   0  0  0  0  0  0  0  0  0  0  0  0
   10.5666    0.2735    0.0000 H   0  0  0  0  0  0  0  0  0  0  0  0
   10.4951    2.4285    0.0000 H   0  0  0  0  0  0  0  0  0  0  0  0
    9.7920    2.8039    0.0000 H   0  0  0  0  0  0  0  0  0  0  0  0
   10.9362    0.9657    0.0000 H   0  0  0  0  0  0  0  0  0  0  0  0
   10.9098    1.7623    0.0000 H   0  0  0  0  0  0  0  0  0  0  0  0
    5.8640    1.0576    0.0000 H   0  0  0  0  0  0  0  0  0  0  0  0
    4.9684    0.0591    0.0000 H   0  0  0  0  0  0  0  0  0  0  0  0
    4.3751   -0.4732    0.0000 H   0  0  0  0  0  0  0  0  0  0  0  0
    5.8819   -2.3158    0.0000 H   0  0  0  0  0  0  0  0  0  0  0  0
    4.8709   -3.7099    0.0000 H   0  0  0  0  0  0  0  0  0  0  0  0
    2.8660   -0.6958    0.0000 H   0  0  0  0  0  0  0  0  0  0  0  0
    2.8660   -3.9358    0.0000 H   0  0  0  0  0  0  0  0  0  0  0  0
    1.4631   -1.5058    0.0000 H   0  0  0  0  0  0  0  0  0  0  0  0
    1.4631   -3.1258    0.0000 H   0  0  0  0  0  0  0  0  0  0  0  0
  1 17  2  0  0  0  0
  2  5  1  0  0  0  0
  2  8  1  0  0  0  0
  2  9  1  0  0  0  0
  2 27  1  0  0  0  0
  3 10  1  0  0  0  0
  3 17  1  0  0  0  0
  3 50  1  0  0  0  0
  4 21  1  0  0  0  0
  4 22  1  0  0  0  0
  4 54  1  0  0  0  0
  5  6  1  0  0  0  0
  5  7  1  0  0  0  0
  5 10  1  0  0  0  0
  6 11  1  0  0  0  0
  6 28  1  0  0  0  0
  6 29  1  0  0  0  0
  7 12  1  0  0  0  0
  7 30  1  0  0  0  0
  7 31  1  0  0  0  0
  8 14  1  0  0  0  0
  8 32  1  0  0  0  0
  8 33  1  0  0  0  0
  9 15  1  0  0  0  0
  9 34  1  0  0  0  0
  9 35  1  0  0  0  0
 10 36  1  0  0  0  0
 10 37  1  0  0  0  0
 11 13  1  0  0  0  0
 11 38  1  0  0  0  0
 11 39  1  0  0  0  0
 12 13  1  0  0  0  0
 12 40  1  0  0  0  0
 12 41  1  0  0  0  0
 13 42  1  0  0  0  0
 13 43  1  0  0  0  0
 14 16  1  0  0  0  0
 14 44  1  0  0  0  0
 14 45  1  0  0  0  0
 15 16  1  0  0  0  0
 15 46  1  0  0  0  0
 15 47  1  0  0  0  0
 16 48  1  0  0  0  0
 16 49  1  0  0  0  0
 17 18  1  0  0  0  0
 18 19  1  0  0  0  0
 18 51  1  0  0  0  0
 18 52  1  0  0  0  0
 19 20  1  0  0  0  0
 19 21  2  0  0  0  0
 20 22  1  0  0  0  0
 20 23  2  0  0  0  0
 21 53  1  0  0  0  0
 22 24  2  0  0  0  0
 23 25  1  0  0  0  0
 23 55  1  0  0  0  0
 24 26  1  0  0  0  0
 24 56  1  0  0  0  0
 25 26  2  0  0  0  0
 25 57  1  0  0  0  0
 26 58  1  0  0  0  0
M  CHG  1   2   1
M  END
> <PUBCHEM_COMPOUND_CID>
41260425

> <PUBCHEM_COMPOUND_CANONICALIZED>
1

> <PUBCHEM_CACTVS_COMPLEXITY>
468

> <PUBCHEM_CACTVS_HBOND_ACCEPTOR>
1

> <PUBCHEM_CACTVS_HBOND_DONOR>
3

> <PUBCHEM_CACTVS_ROTATABLE_BOND>
5

> <PUBCHEM_CACTVS_SUBSKEYS>
AAADcfB7IAAAAAAAAAAAAAAAAAAAAWAAAAA8YIAAAAAAAFgB8AAAHgAQAAAADIjBngQ8wPPJkACoAzV3VACCgCAxAiAI2aE4ZJgIYPLAlZGUIAhglgDIyAccicCegAAAAAACAAAAAAAAAAQAAAAAAAAAAA==

> <PUBCHEM_IUPAC_OPENEYE_NAME>
2-(1H-indol-3-yl)-N-[(1-piperidin-1-ium-1-ylcyclohexyl)methyl]acetamide

> <PUBCHEM_IUPAC_CAS_NAME>
2-(1H-indol-3-yl)-N-[[1-(1-piperidin-1-iumyl)cyclohexyl]methyl]acetamide

> <PUBCHEM_IUPAC_NAME>
2-(1H-indol-3-yl)-N-[(1-piperidin-1-ium-1-ylcyclohexyl)methyl]acetamide

> <PUBCHEM_IUPAC_SYSTEMATIC_NAME>
2-(1H-indol-3-yl)-N-[(1-piperidin-1-ium-1-ylcyclohexyl)methyl]ethanamide

> <PUBCHEM_IUPAC_TRADITIONAL_NAME>
2-(1H-indol-3-yl)-N-[(1-piperidin-1-ium-1-ylcyclohexyl)methyl]acetamide

> <PUBCHEM_IUPAC_INCHI>
InChI=1S/C22H31N3O/c26-21(15-18-16-23-20-10-4-3-9-19(18)20)24-17-22(11-5-1-6-12-22)25-13-7-2-8-14-25/h3-4,9-10,16,23H,1-2,5-8,11-15,17H2,(H,24,26)/p+1

> <PUBCHEM_IUPAC_INCHIKEY>
QKWNWCQWSUCYKQ-UHFFFAOYSA-O

> <PUBCHEM_XLOGP3>
3.7

> <PUBCHEM_EXACT_MASS>
354.254538

> <PUBCHEM_MOLECULAR_FORMULA>
C22H32N3O+

> <PUBCHEM_MOLECULAR_WEIGHT>
354.50898

> <PUBCHEM_OPENEYE_CAN_SMILES>
C1CCC(CC1)(CNC(=O)CC2=CNC3=CC=CC=C32)[NH+]4CCCCC4

> <PUBCHEM_OPENEYE_ISO_SMILES>
C1CCC(CC1)(CNC(=O)CC2=CNC3=CC=CC=C32)[NH+]4CCCCC4

> <PUBCHEM_CACTVS_TPSA>
49.3

> <PUBCHEM_MONOISOTOPIC_WEIGHT>
354.254538

> <PUBCHEM_TOTAL_CHARGE>
1

> <PUBCHEM_HEAVY_ATOM_COUNT>
26

> <PUBCHEM_ATOM_DEF_STEREO_COUNT>
0

> <PUBCHEM_ATOM_UDEF_STEREO_COUNT>
0

> <PUBCHEM_BOND_DEF_STEREO_COUNT>
0

> <PUBCHEM_BOND_UDEF_STEREO_COUNT>
0

> <PUBCHEM_ISOTOPIC_ATOM_COUNT>
0

> <PUBCHEM_COMPONENT_COUNT>
1

> <PUBCHEM_CACTVS_TAUTO_COUNT>
2

> <PUBCHEM_COORDINATE_TYPE>
1
5
255

> <PUBCHEM_BONDANNOTATIONS>
19  20  8
19  21  8
20  22  8
20  23  8
22  24  8
23  25  8
24  26  8
25  26  8
4  21  8
4  22  8

$$$$
41271999
  -OEChem-03061303122D

 38 40  0     0  0  0  0  0  0999 V2000
    7.9756    2.8699    0.0000 O   0  0  0  0  0  0  0  0  0  0  0  0
    6.2781    0.8004    0.0000 N   0  3  0  0  0  0  0  0  0  0  0  0
    4.6783   -2.9164    0.0000 N   0  0  0  0  0  0  0  0  0  0  0  0
    5.9674   -0.1502    0.0000 C   0  0  0  0  0  0  0  0  0  0  0  0
    4.9889   -0.3564    0.0000 C   0  0  0  0  0  0  0  0  0  0  0  0
    4.6783   -1.3069    0.0000 C   0  0  0  0  0  0  0  0  0  0  0  0
    6.5888    1.7509    0.0000 C   0  0  0  0  0  0  0  0  0  0  0  0
    3.7320   -1.6116    0.0000 C   0  0  0  0  0  0  0  0  0  0  0  0
    3.7320   -2.6116    0.0000 C   0  0  0  0  0  0  0  0  0  0  0  0
    5.2619   -2.1116    0.0000 C   0  0  0  0  0  0  0  0  0  0  0  0
    7.5673    1.9571    0.0000 C   0  0  0  0  0  0  0  0  0  0  0  0
    2.8660   -1.1116    0.0000 C   0  0  0  0  0  0  0  0  0  0  0  0
    2.8660   -3.1116    0.0000 C   0  0  0  0  0  0  0  0  0  0  0  0
    8.3093    1.2867    0.0000 C   0  0  0  0  0  0  0  0  0  0  0  0
    2.0000   -1.6116    0.0000 C   0  0  0  0  0  0  0  0  0  0  0  0
    2.0000   -2.6116    0.0000 C   0  0  0  0  0  0  0  0  0  0  0  0
    8.9699    2.7637    0.0000 C   0  0  0  0  0  0  0  0  0  0  0  0
    9.1761    1.7852    0.0000 C   0  0  0  0  0  0  0  0  0  0  0  0
    9.6403    3.5057    0.0000 C   0  0  0  0  0  0  0  0  0  0  0  0
    5.9880   -0.7698    0.0000 H   0  0  0  0  0  0  0  0  0  0  0  0
    6.5812   -0.2375    0.0000 H   0  0  0  0  0  0  0  0  0  0  0  0
    4.9684    0.2633    0.0000 H   0  0  0  0  0  0  0  0  0  0  0  0
    4.3751   -0.2690    0.0000 H   0  0  0  0  0  0  0  0  0  0  0  0
    6.8674    0.6078    0.0000 H   0  0  0  0  0  0  0  0  0  0  0  0
    5.6888    0.9930    0.0000 H   0  0  0  0  0  0  0  0  0  0  0  0
    6.5682    2.3705    0.0000 H   0  0  0  0  0  0  0  0  0  0  0  0
    5.9750    1.8382    0.0000 H   0  0  0  0  0  0  0  0  0  0  0  0
    5.8819   -2.1116    0.0000 H   0  0  0  0  0  0  0  0  0  0  0  0
    4.8709   -3.5057    0.0000 H   0  0  0  0  0  0  0  0  0  0  0  0
    2.8660   -0.4916    0.0000 H   0  0  0  0  0  0  0  0  0  0  0  0
    2.8660   -3.7316    0.0000 H   0  0  0  0  0  0  0  0  0  0  0  0
    8.2434    0.6702    0.0000 H   0  0  0  0  0  0  0  0  0  0  0  0
    1.4631   -1.3016    0.0000 H   0  0  0  0  0  0  0  0  0  0  0  0
    1.4631   -2.9216    0.0000 H   0  0  0  0  0  0  0  0  0  0  0  0
    9.7421    1.5320    0.0000 H   0  0  0  0  0  0  0  0  0  0  0  0
   10.1004    3.0900    0.0000 H   0  0  0  0  0  0  0  0  0  0  0  0
   10.0560    3.9657    0.0000 H   0  0  0  0  0  0  0  0  0  0  0  0
    9.1803    3.9213    0.0000 H   0  0  0  0  0  0  0  0  0  0  0  0
  1 11  1  0  0  0  0
  1 17  1  0  0  0  0
  2  4  1  0  0  0  0
  2  7  1  0  0  0  0
  2 24  1  0  0  0  0
  2 25  1  0  0  0  0
  3  9  1  0  0  0  0
  3 10  1  0  0  0  0
  3 29  1  0  0  0  0
  4  5  1  0  0  0  0
  4 20  1  0  0  0  0
  4 21  1  0  0  0  0
  5  6  1  0  0  0  0
  5 22  1  0  0  0  0
  5 23  1  0  0  0  0
  6  8  1  0  0  0  0
  6 10  2  0  0  0  0
  7 11  1  0  0  0  0
  7 26  1  0  0  0  0
  7 27  1  0  0  0  0
  8  9  1  0  0  0  0
  8 12  2  0  0  0  0
  9 13  2  0  0  0  0
 10 28  1  0  0  0  0
 11 14  2  0  0  0  0
 12 15  1  0  0  0  0
 12 30  1  0  0  0  0
 13 16  1  0  0  0  0
 13 31  1  0  0  0  0
 14 18  1  0  0  0  0
 14 32  1  0  0  0  0
 15 16  2  0  0  0  0
 15 33  1  0  0  0  0
 16 34  1  0  0  0  0
 17 18  2  0  0  0  0
 17 19  1  0  0  0  0
 18 35  1  0  0  0  0
 19 36  1  0  0  0  0
 19 37  1  0  0  0  0
 19 38  1  0  0  0  0
M  CHG  1   2   1
M  END
> <PUBCHEM_COMPOUND_CID>
41271999

> <PUBCHEM_COMPOUND_CANONICALIZED>
1

> <PUBCHEM_CACTVS_COMPLEXITY>
284

> <PUBCHEM_CACTVS_HBOND_ACCEPTOR>
1

> <PUBCHEM_CACTVS_HBOND_DONOR>
2

> <PUBCHEM_CACTVS_ROTATABLE_BOND>
5

> <PUBCHEM_CACTVS_SUBSKEYS>
AAADceB7IAAAAAAAAAAAAAAAAAAAAWJAAAAwAAAAAAAAAFgB/AAAHgAQAAAADAzBngQ+xPLJlECoA7R3RACCiCA1IiAI2aG+bNgOJvLEtbuHOSjk0BHY6YeYkcIOgAAAAAACAAAAAAAAAAQAAAAAAAAAAA==

> <PUBCHEM_IUPAC_OPENEYE_NAME>
2-(1H-indol-3-yl)ethyl-[(5-methyl-2-furyl)methyl]ammonium

> <PUBCHEM_IUPAC_CAS_NAME>
2-(1H-indol-3-yl)ethyl-[(5-methyl-2-furanyl)methyl]ammonium

> <PUBCHEM_IUPAC_NAME>
2-(1H-indol-3-yl)ethyl-[(5-methylfuran-2-yl)methyl]azanium

> <PUBCHEM_IUPAC_SYSTEMATIC_NAME>
2-(1H-indol-3-yl)ethyl-[(5-methylfuran-2-yl)methyl]azanium

> <PUBCHEM_IUPAC_TRADITIONAL_NAME>
2-(1H-indol-3-yl)ethyl-[(5-methyl-2-furyl)methyl]ammonium

> <PUBCHEM_IUPAC_INCHI>
InChI=1S/C16H18N2O/c1-12-6-7-14(19-12)11-17-9-8-13-10-18-16-5-3-2-4-15(13)16/h2-7,10,17-18H,8-9,11H2,1H3/p+1

> <PUBCHEM_IUPAC_INCHIKEY>
HEQREUROZPMJBN-UHFFFAOYSA-O

> <PUBCHEM_XLOGP3>
3.1

> <PUBCHEM_EXACT_MASS>
255.149738

> <PUBCHEM_MOLECULAR_FORMULA>
C16H19N2O+

> <PUBCHEM_MOLECULAR_WEIGHT>
255.33486

> <PUBCHEM_OPENEYE_CAN_SMILES>
CC1=CC=C(O1)C[NH2+]CCC2=CNC3=CC=CC=C32

> <PUBCHEM_OPENEYE_ISO_SMILES>
CC1=CC=C(O1)C[NH2+]CCC2=CNC3=CC=CC=C32

> <PUBCHEM_CACTVS_TPSA>
45.5

> <PUBCHEM_MONOISOTOPIC_WEIGHT>
255.149738

> <PUBCHEM_TOTAL_CHARGE>
1

> <PUBCHEM_HEAVY_ATOM_COUNT>
19

> <PUBCHEM_ATOM_DEF_STEREO_COUNT>
0

> <PUBCHEM_ATOM_UDEF_STEREO_COUNT>
0

> <PUBCHEM_BOND_DEF_STEREO_COUNT>
0

> <PUBCHEM_BOND_UDEF_STEREO_COUNT>
0

> <PUBCHEM_ISOTOPIC_ATOM_COUNT>
0

> <PUBCHEM_COMPONENT_COUNT>
1

> <PUBCHEM_CACTVS_TAUTO_COUNT>
1

> <PUBCHEM_COORDINATE_TYPE>
1
5
255

> <PUBCHEM_BONDANNOTATIONS>
1  11  8
1  17  8
11  14  8
12  15  8
13  16  8
14  18  8
15  16  8
17  18  8
3  10  8
3  9  8
6  10  8
6  8  8
8  12  8
8  9  8
9  13  8

$$$$
41273970
  -OEChem-03061303132D

 31 31  0     1  0  0  0  0  0999 V2000
    2.0000   -1.0000    0.0000 Br  0  0  0  0  0  0  0  0  0  0  0  0
    2.8660    0.5000    0.0000 O   0  0  0  0  0  0  0  0  0  0  0  0
    4.5981    0.5000    0.0000 N   0  0  0  0  0  0  0  0  0  0  0  0
    5.4641    2.0000    0.0000 C   0  0  0  0  0  0  0  0  0  0  0  0
    4.5981    1.5000    0.0000 C   0  0  1  0  0  0  0  0  0  0  0  0
    5.4641    3.0000    0.0000 C   0  0  0  0  0  0  0  0  0  0  0  0
    6.3301    1.5000    0.0000 C   0  0  0  0  0  0  0  0  0  0  0  0
    3.7320    2.0000    0.0000 C   0  0  0  0  0  0  0  0  0  0  0  0
    3.7320    0.0000    0.0000 C   0  0  0  0  0  0  0  0  0  0  0  0
    3.7320   -1.0000    0.0000 C   0  0  0  0  0  0  0  0  0  0  0  0
    2.8660   -1.5000    0.0000 C   0  0  0  0  0  0  0  0  0  0  0  0
    4.5981   -1.5000    0.0000 C   0  0  0  0  0  0  0  0  0  0  0  0
    2.8660   -2.5000    0.0000 C   0  0  0  0  0  0  0  0  0  0  0  0
    4.5981   -2.5000    0.0000 C   0  0  0  0  0  0  0  0  0  0  0  0
    3.7320   -3.0000    0.0000 C   0  0  0  0  0  0  0  0  0  0  0  0
    5.4641    1.3800    0.0000 H   0  0  0  0  0  0  0  0  0  0  0  0
    5.1350    1.1900    0.0000 H   0  0  0  0  0  0  0  0  0  0  0  0
    6.0841    3.0000    0.0000 H   0  0  0  0  0  0  0  0  0  0  0  0
    5.4641    3.6200    0.0000 H   0  0  0  0  0  0  0  0  0  0  0  0
    6.0201    0.9631    0.0000 H   0  0  0  0  0  0  0  0  0  0  0  0
    6.8671    1.1900    0.0000 H   0  0  0  0  0  0  0  0  0  0  0  0
    6.6401    2.0369    0.0000 H   0  0  0  0  0  0  0  0  0  0  0  0
    4.8441    3.0000    0.0000 H   0  0  0  0  0  0  0  0  0  0  0  0
    4.0420    2.5369    0.0000 H   0  0  0  0  0  0  0  0  0  0  0  0
    3.1951    2.3100    0.0000 H   0  0  0  0  0  0  0  0  0  0  0  0
    3.4220    1.4631    0.0000 H   0  0  0  0  0  0  0  0  0  0  0  0
    5.1350    0.1900    0.0000 H   0  0  0  0  0  0  0  0  0  0  0  0
    5.1350   -1.1900    0.0000 H   0  0  0  0  0  0  0  0  0  0  0  0
    2.3291   -2.8100    0.0000 H   0  0  0  0  0  0  0  0  0  0  0  0
    5.1350   -2.8100    0.0000 H   0  0  0  0  0  0  0  0  0  0  0  0
    3.7320   -3.6200    0.0000 H   0  0  0  0  0  0  0  0  0  0  0  0
  1 11  1  0  0  0  0
  2  9  2  0  0  0  0
  5  3  1  6  0  0  0
  3  9  1  0  0  0  0
  3 27  1  0  0  0  0
  4  5  1  0  0  0  0
  4  6  1  0  0  0  0
  4  7  1  0  0  0  0
  4 16  1  0  0  0  0
  5  8  1  0  0  0  0
  5 17  1  0  0  0  0
  6 18  1  0  0  0  0
  6 19  1  0  0  0  0
  6 23  1  0  0  0  0
  7 20  1  0  0  0  0
  7 21  1  0  0  0  0
  7 22  1  0  0  0  0
  8 24  1  0  0  0  0
  8 25  1  0  0  0  0
  8 26  1  0  0  0  0
  9 10  1  0  0  0  0
 10 11  1  0  0  0  0
 10 12  2  0  0  0  0
 11 13  2  0  0  0  0
 12 14  1  0  0  0  0
 12 28  1  0  0  0  0
 13 15  1  0  0  0  0
 13 29  1  0  0  0  0
 14 15  2  0  0  0  0
 14 30  1  0  0  0  0
 15 31  1  0  0  0  0
M  END
> <PUBCHEM_COMPOUND_CID>
41273970

> <PUBCHEM_COMPOUND_CANONICALIZED>
1

> <PUBCHEM_CACTVS_COMPLEXITY>
218

> <PUBCHEM_CACTVS_HBOND_ACCEPTOR>
1

> <PUBCHEM_CACTVS_HBOND_DONOR>
1

> <PUBCHEM_CACTVS_ROTATABLE_BOND>
3

> <PUBCHEM_CACTVS_SUBSKEYS>
AAADceByIAAAEAAAAAAAAAAAAAAAAAAAAAAwAAAAAAAAAAABAAAAHgBQAAABrSjBmAQyAILAAACIAiFSEACCAAAkAAQIiIEIBOgIIDKAlRGEIQhglgCIi5cYiACOAAAAAAAAgAAAAAAAAAEAAAAAAAAAAA==

> <PUBCHEM_IUPAC_OPENEYE_NAME>
2-bromo-N-[(1R)-1,2-dimethylpropyl]benzamide

> <PUBCHEM_IUPAC_CAS_NAME>
2-bromo-N-[(2R)-3-methylbutan-2-yl]benzamide

> <PUBCHEM_IUPAC_NAME>
2-bromo-N-[(2R)-3-methylbutan-2-yl]benzamide

> <PUBCHEM_IUPAC_SYSTEMATIC_NAME>
2-bromanyl-N-[(2R)-3-methylbutan-2-yl]benzamide

> <PUBCHEM_IUPAC_TRADITIONAL_NAME>
2-bromo-N-[(1R)-1,2-dimethylpropyl]benzamide

> <PUBCHEM_IUPAC_INCHI>
InChI=1S/C12H16BrNO/c1-8(2)9(3)14-12(15)10-6-4-5-7-11(10)13/h4-9H,1-3H3,(H,14,15)/t9-/m1/s1

> <PUBCHEM_IUPAC_INCHIKEY>
HKDFWMUYYBINMT-SECBINFHSA-N

> <PUBCHEM_XLOGP3>
2.8

> <PUBCHEM_EXACT_MASS>
269.041526

> <PUBCHEM_MOLECULAR_FORMULA>
C12H16BrNO

> <PUBCHEM_MOLECULAR_WEIGHT>
270.16554

> <PUBCHEM_OPENEYE_CAN_SMILES>
CC(C)C(C)NC(=O)C1=CC=CC=C1Br

> <PUBCHEM_OPENEYE_ISO_SMILES>
C[C@H](C(C)C)NC(=O)C1=CC=CC=C1Br

> <PUBCHEM_CACTVS_TPSA>
29.1

> <PUBCHEM_MONOISOTOPIC_WEIGHT>
269.041526

> <PUBCHEM_TOTAL_CHARGE>
0

> <PUBCHEM_HEAVY_ATOM_COUNT>
15

> <PUBCHEM_ATOM_DEF_STEREO_COUNT>
1

> <PUBCHEM_ATOM_UDEF_STEREO_COUNT>
0

> <PUBCHEM_BOND_DEF_STEREO_COUNT>
0

> <PUBCHEM_BOND_UDEF_STEREO_COUNT>
0

> <PUBCHEM_ISOTOPIC_ATOM_COUNT>
0

> <PUBCHEM_COMPONENT_COUNT>
1

> <PUBCHEM_CACTVS_TAUTO_COUNT>
2

> <PUBCHEM_COORDINATE_TYPE>
1
5
255

> <PUBCHEM_BONDANNOTATIONS>
10  11  8
10  12  8
11  13  8
12  14  8
13  15  8
14  15  8
5  3  6

$$$$
41273971
  -OEChem-03061303132D

 31 31  0     1  0  0  0  0  0999 V2000
    2.0000   -1.0000    0.0000 Br  0  0  0  0  0  0  0  0  0  0  0  0
    2.8660    0.5000    0.0000 O   0  0  0  0  0  0  0  0  0  0  0  0
    4.5981    0.5000    0.0000 N   0  0  0  0  0  0  0  0  0  0  0  0
    5.4641    2.0000    0.0000 C   0  0  0  0  0  0  0  0  0  0  0  0
    4.5981    1.5000    0.0000 C   0  0  2  0  0  0  0  0  0  0  0  0
    5.4641    3.0000    0.0000 C   0  0  0  0  0  0  0  0  0  0  0  0
    6.3301    1.5000    0.0000 C   0  0  0  0  0  0  0  0  0  0  0  0
    3.7320    2.0000    0.0000 C   0  0  0  0  0  0  0  0  0  0  0  0
    3.7320    0.0000    0.0000 C   0  0  0  0  0  0  0  0  0  0  0  0
    3.7320   -1.0000    0.0000 C   0  0  0  0  0  0  0  0  0  0  0  0
    2.8660   -1.5000    0.0000 C   0  0  0  0  0  0  0  0  0  0  0  0
    4.5981   -1.5000    0.0000 C   0  0  0  0  0  0  0  0  0  0  0  0
    2.8660   -2.5000    0.0000 C   0  0  0  0  0  0  0  0  0  0  0  0
    4.5981   -2.5000    0.0000 C   0  0  0  0  0  0  0  0  0  0  0  0
    3.7320   -3.0000    0.0000 C   0  0  0  0  0  0  0  0  0  0  0  0
    5.4641    1.3800    0.0000 H   0  0  0  0  0  0  0  0  0  0  0  0
    5.1350    1.1900    0.0000 H   0  0  0  0  0  0  0  0  0  0  0  0
    6.0841    3.0000    0.0000 H   0  0  0  0  0  0  0  0  0  0  0  0
    5.4641    3.6200    0.0000 H   0  0  0  0  0  0  0  0  0  0  0  0
    6.0201    0.9631    0.0000 H   0  0  0  0  0  0  0  0  0  0  0  0
    6.8671    1.1900    0.0000 H   0  0  0  0  0  0  0  0  0  0  0  0
    6.6401    2.0369    0.0000 H   0  0  0  0  0  0  0  0  0  0  0  0
    4.8441    3.0000    0.0000 H   0  0  0  0  0  0  0  0  0  0  0  0
    4.0420    2.5369    0.0000 H   0  0  0  0  0  0  0  0  0  0  0  0
    3.1951    2.3100    0.0000 H   0  0  0  0  0  0  0  0  0  0  0  0
    3.4220    1.4631    0.0000 H   0  0  0  0  0  0  0  0  0  0  0  0
    5.1350    0.1900    0.0000 H   0  0  0  0  0  0  0  0  0  0  0  0
    5.1350   -1.1900    0.0000 H   0  0  0  0  0  0  0  0  0  0  0  0
    2.3291   -2.8100    0.0000 H   0  0  0  0  0  0  0  0  0  0  0  0
    5.1350   -2.8100    0.0000 H   0  0  0  0  0  0  0  0  0  0  0  0
    3.7320   -3.6200    0.0000 H   0  0  0  0  0  0  0  0  0  0  0  0
  1 11  1  0  0  0  0
  2  9  2  0  0  0  0
  5  3  1  1  0  0  0
  3  9  1  0  0  0  0
  3 27  1  0  0  0  0
  4  5  1  0  0  0  0
  4  6  1  0  0  0  0
  4  7  1  0  0  0  0
  4 16  1  0  0  0  0
  5  8  1  0  0  0  0
  5 17  1  0  0  0  0
  6 18  1  0  0  0  0
  6 19  1  0  0  0  0
  6 23  1  0  0  0  0
  7 20  1  0  0  0  0
  7 21  1  0  0  0  0
  7 22  1  0  0  0  0
  8 24  1  0  0  0  0
  8 25  1  0  0  0  0
  8 26  1  0  0  0  0
  9 10  1  0  0  0  0
 10 11  1  0  0  0  0
 10 12  2  0  0  0  0
 11 13  2  0  0  0  0
 12 14  1  0  0  0  0
 12 28  1  0  0  0  0
 13 15  1  0  0  0  0
 13 29  1  0  0  0  0
 14 15  2  0  0  0  0
 14 30  1  0  0  0  0
 15 31  1  0  0  0  0
M  END
> <PUBCHEM_COMPOUND_CID>
41273971

> <PUBCHEM_COMPOUND_CANONICALIZED>
1

> <PUBCHEM_CACTVS_COMPLEXITY>
218

> <PUBCHEM_CACTVS_HBOND_ACCEPTOR>
1

> <PUBCHEM_CACTVS_HBOND_DONOR>
1

> <PUBCHEM_CACTVS_ROTATABLE_BOND>
3

> <PUBCHEM_CACTVS_SUBSKEYS>
AAADceByIAAAEAAAAAAAAAAAAAAAAAAAAAAwAAAAAAAAAAABAAAAHgBQAAABrSjBmAQyAILAAACIAiFSEACCAAAkAAQIiIEIBOgIIDKAlRGEIQhglgCIi5cYiACOAAAAAAAAgAAAAAAAAAEAAAAAAAAAAA==

> <PUBCHEM_IUPAC_OPENEYE_NAME>
2-bromo-N-[(1S)-1,2-dimethylpropyl]benzamide

> <PUBCHEM_IUPAC_CAS_NAME>
2-bromo-N-[(2S)-3-methylbutan-2-yl]benzamide

> <PUBCHEM_IUPAC_NAME>
2-bromo-N-[(2S)-3-methylbutan-2-yl]benzamide

> <PUBCHEM_IUPAC_SYSTEMATIC_NAME>
2-bromanyl-N-[(2S)-3-methylbutan-2-yl]benzamide

> <PUBCHEM_IUPAC_TRADITIONAL_NAME>
2-bromo-N-[(1S)-1,2-dimethylpropyl]benzamide

> <PUBCHEM_IUPAC_INCHI>
InChI=1S/C12H16BrNO/c1-8(2)9(3)14-12(15)10-6-4-5-7-11(10)13/h4-9H,1-3H3,(H,14,15)/t9-/m0/s1

> <PUBCHEM_IUPAC_INCHIKEY>
HKDFWMUYYBINMT-VIFPVBQESA-N

> <PUBCHEM_XLOGP3>
2.8

> <PUBCHEM_EXACT_MASS>
269.041526

> <PUBCHEM_MOLECULAR_FORMULA>
C12H16BrNO

> <PUBCHEM_MOLECULAR_WEIGHT>
270.16554

> <PUBCHEM_OPENEYE_CAN_SMILES>
CC(C)C(C)NC(=O)C1=CC=CC=C1Br

> <PUBCHEM_OPENEYE_ISO_SMILES>
C[C@@H](C(C)C)NC(=O)C1=CC=CC=C1Br

> <PUBCHEM_CACTVS_TPSA>
29.1

> <PUBCHEM_MONOISOTOPIC_WEIGHT>
269.041526

> <PUBCHEM_TOTAL_CHARGE>
0

> <PUBCHEM_HEAVY_ATOM_COUNT>
15

> <PUBCHEM_ATOM_DEF_STEREO_COUNT>
1

> <PUBCHEM_ATOM_UDEF_STEREO_COUNT>
0

> <PUBCHEM_BOND_DEF_STEREO_COUNT>
0

> <PUBCHEM_BOND_UDEF_STEREO_COUNT>
0

> <PUBCHEM_ISOTOPIC_ATOM_COUNT>
0

> <PUBCHEM_COMPONENT_COUNT>
1

> <PUBCHEM_CACTVS_TAUTO_COUNT>
2

> <PUBCHEM_COORDINATE_TYPE>
1
5
255

> <PUBCHEM_BONDANNOTATIONS>
10  11  8
10  12  8
11  13  8
12  14  8
13  15  8
14  15  8
5  3  5

$$$$
41274892
  -OEChem-03061303132D

 23 24  0     1  0  0  0  0  0999 V2000
    5.9674    1.3831    0.0000 O   0  0  0  0  0  0  0  0  0  0  0  0
    4.6783   -1.3831    0.0000 N   0  0  0  0  0  0  0  0  0  0  0  0
    4.6783    0.2264    0.0000 C   0  0  0  0  0  0  0  0  0  0  0  0
    3.7320   -0.0784    0.0000 C   0  0  0  0  0  0  0  0  0  0  0  0
    4.9889    1.1769    0.0000 C   0  0  1  0  0  0  0  0  0  0  0  0
    3.7320   -1.0784    0.0000 C   0  0  0  0  0  0  0  0  0  0  0  0
    5.2619   -0.5784    0.0000 C   0  0  0  0  0  0  0  0  0  0  0  0
    2.8660    0.4216    0.0000 C   0  0  0  0  0  0  0  0  0  0  0  0
    2.8660   -1.5784    0.0000 C   0  0  0  0  0  0  0  0  0  0  0  0
    4.3211    1.9212    0.0000 C   0  0  0  0  0  0  0  0  0  0  0  0
    2.0000   -0.0784    0.0000 C   0  0  0  0  0  0  0  0  0  0  0  0
    2.0000   -1.0784    0.0000 C   0  0  0  0  0  0  0  0  0  0  0  0
    5.1815    1.7662    0.0000 H   0  0  0  0  0  0  0  0  0  0  0  0
    5.8819   -0.5784    0.0000 H   0  0  0  0  0  0  0  0  0  0  0  0
    4.8709   -1.9724    0.0000 H   0  0  0  0  0  0  0  0  0  0  0  0
    2.8660    1.0416    0.0000 H   0  0  0  0  0  0  0  0  0  0  0  0
    4.7826    2.3352    0.0000 H   0  0  0  0  0  0  0  0  0  0  0  0
    3.9070    2.3826    0.0000 H   0  0  0  0  0  0  0  0  0  0  0  0
    3.8596    1.5071    0.0000 H   0  0  0  0  0  0  0  0  0  0  0  0
    2.8660   -2.1984    0.0000 H   0  0  0  0  0  0  0  0  0  0  0  0
    1.4631    0.2316    0.0000 H   0  0  0  0  0  0  0  0  0  0  0  0
    1.4631   -1.3884    0.0000 H   0  0  0  0  0  0  0  0  0  0  0  0
    6.1600    1.9724    0.0000 H   0  0  0  0  0  0  0  0  0  0  0  0
  5  1  1  1  0  0  0
  1 23  1  0  0  0  0
  2  6  1  0  0  0  0
  2  7  1  0  0  0  0
  2 15  1  0  0  0  0
  3  4  1  0  0  0  0
  3  5  1  0  0  0  0
  3  7  2  0  0  0  0
  4  6  1  0  0  0  0
  4  8  2  0  0  0  0
  5 10  1  0  0  0  0
  5 13  1  0  0  0  0
  6  9  2  0  0  0  0
  7 14  1  0  0  0  0
  8 11  1  0  0  0  0
  8 16  1  0  0  0  0
  9 12  1  0  0  0  0
  9 20  1  0  0  0  0
 10 17  1  0  0  0  0
 10 18  1  0  0  0  0
 10 19  1  0  0  0  0
 11 12  2  0  0  0  0
 11 21  1  0  0  0  0
 12 22  1  0  0  0  0
M  END
> <PUBCHEM_COMPOUND_CID>
41274892

> <PUBCHEM_COMPOUND_CANONICALIZED>
1

> <PUBCHEM_CACTVS_COMPLEXITY>
160

> <PUBCHEM_CACTVS_HBOND_ACCEPTOR>
1

> <PUBCHEM_CACTVS_HBOND_DONOR>
2

> <PUBCHEM_CACTVS_ROTATABLE_BOND>
1

> <PUBCHEM_CACTVS_SUBSKEYS>
AAADccByIAAAAAAAAAAAAAAAAAAAAWAAAAAwAAAAAAAAAFgB8AAAHgAQCAAADBzhngY+wPLJkgCgAzRnRACCgCAxAiAI2aA4bJgINuLAkZGEcAhm0AHI2AewwOAOgAAAAAACAAAAAAAAAAQAAAAAAAAAAA==

> <PUBCHEM_IUPAC_OPENEYE_NAME>
(1R)-1-(1H-indol-3-yl)ethanol

> <PUBCHEM_IUPAC_CAS_NAME>
(1R)-1-(1H-indol-3-yl)ethanol

> <PUBCHEM_IUPAC_NAME>
(1R)-1-(1H-indol-3-yl)ethanol

> <PUBCHEM_IUPAC_SYSTEMATIC_NAME>
(1R)-1-(1H-indol-3-yl)ethanol

> <PUBCHEM_IUPAC_TRADITIONAL_NAME>
(1R)-1-(1H-indol-3-yl)ethanol

> <PUBCHEM_IUPAC_INCHI>
InChI=1S/C10H11NO/c1-7(12)9-6-11-10-5-3-2-4-8(9)10/h2-7,11-12H,1H3/t7-/m1/s1

> <PUBCHEM_IUPAC_INCHIKEY>
UHVJRCGECUWUJB-SSDOTTSWSA-N

> <PUBCHEM_XLOGP3>
1.8

> <PUBCHEM_EXACT_MASS>
161.084064

> <PUBCHEM_MOLECULAR_FORMULA>
C10H11NO

> <PUBCHEM_MOLECULAR_WEIGHT>
161.20044

> <PUBCHEM_OPENEYE_CAN_SMILES>
CC(C1=CNC2=CC=CC=C21)O

> <PUBCHEM_OPENEYE_ISO_SMILES>
C[C@H](C1=CNC2=CC=CC=C21)O

> <PUBCHEM_CACTVS_TPSA>
36

> <PUBCHEM_MONOISOTOPIC_WEIGHT>
161.084064

> <PUBCHEM_TOTAL_CHARGE>
0

> <PUBCHEM_HEAVY_ATOM_COUNT>
12

> <PUBCHEM_ATOM_DEF_STEREO_COUNT>
1

> <PUBCHEM_ATOM_UDEF_STEREO_COUNT>
0

> <PUBCHEM_BOND_DEF_STEREO_COUNT>
0

> <PUBCHEM_BOND_UDEF_STEREO_COUNT>
0

> <PUBCHEM_ISOTOPIC_ATOM_COUNT>
0

> <PUBCHEM_COMPONENT_COUNT>
1

> <PUBCHEM_CACTVS_TAUTO_COUNT>
1

> <PUBCHEM_COORDINATE_TYPE>
1
5
255

> <PUBCHEM_BONDANNOTATIONS>
5  1  5
11  12  8
2  6  8
2  7  8
3  4  8
3  7  8
4  6  8
4  8  8
6  9  8
8  11  8
9  12  8

$$$$
