25803424
  -OEChem-05221314432D

 26 27  0     0  0  0  0  0  0999 V2000
    6.2781    1.8921    0.0000 O   0  0  0  0  0  0  0  0  0  0  0  0
    4.6783   -0.2152    0.0000 N   0  0  0  0  0  0  0  0  0  0  0  0
    3.7320   -0.5199    0.0000 C   0  0  0  0  0  0  0  0  0  0  0  0
    5.2619   -1.0199    0.0000 C   0  0  0  0  0  0  0  0  0  0  0  0
    3.7320   -1.5199    0.0000 C   0  0  0  0  0  0  0  0  0  0  0  0
    4.9889    0.7353    0.0000 C   0  0  0  0  0  0  0  0  0  0  0  0
    4.6783   -1.8247    0.0000 C   0  0  0  0  0  0  0  0  0  0  0  0
    2.8660   -0.0199    0.0000 C   0  0  0  0  0  0  0  0  0  0  0  0
    5.9674    0.9415    0.0000 C   0  0  0  0  0  0  0  0  0  0  0  0
    6.2619   -1.0199    0.0000 C   0  0  0  0  0  0  0  0  0  0  0  0
    2.8660   -2.0199    0.0000 C   0  0  0  0  0  0  0  0  0  0  0  0
    2.0000   -0.5199    0.0000 C   0  0  0  0  0  0  0  0  0  0  0  0
    2.0000   -1.5199    0.0000 C   0  0  0  0  0  0  0  0  0  0  0  0
    4.9684    1.3550    0.0000 H   0  0  0  0  0  0  0  0  0  0  0  0
    4.3751    0.8227    0.0000 H   0  0  0  0  0  0  0  0  0  0  0  0
    4.8709   -2.4140    0.0000 H   0  0  0  0  0  0  0  0  0  0  0  0
    2.8660    0.6001    0.0000 H   0  0  0  0  0  0  0  0  0  0  0  0
    5.9880    0.3219    0.0000 H   0  0  0  0  0  0  0  0  0  0  0  0
    6.5812    0.8542    0.0000 H   0  0  0  0  0  0  0  0  0  0  0  0
    6.2619   -1.6399    0.0000 H   0  0  0  0  0  0  0  0  0  0  0  0
    6.8819   -1.0199    0.0000 H   0  0  0  0  0  0  0  0  0  0  0  0
    6.2619   -0.3999    0.0000 H   0  0  0  0  0  0  0  0  0  0  0  0
    2.8660   -2.6399    0.0000 H   0  0  0  0  0  0  0  0  0  0  0  0
    1.4631   -0.2099    0.0000 H   0  0  0  0  0  0  0  0  0  0  0  0
    1.4631   -1.8299    0.0000 H   0  0  0  0  0  0  0  0  0  0  0  0
    6.8848    2.0199    0.0000 H   0  0  0  0  0  0  0  0  0  0  0  0
  1  9  1  0  0  0  0
  1 26  1  0  0  0  0
  2  3  1  0  0  0  0
  2  4  1  0  0  0  0
  2  6  1  0  0  0  0
  3  5  1  0  0  0  0
  3  8  2  0  0  0  0
  4  7  2  0  0  0  0
  4 10  1  0  0  0  0
  5  7  1  0  0  0  0
  5 11  2  0  0  0  0
  6  9  1  0  0  0  0
  6 14  1  0  0  0  0
  6 15  1  0  0  0  0
  7 16  1  0  0  0  0
  8 12  1  0  0  0  0
  8 17  1  0  0  0  0
  9 18  1  0  0  0  0
  9 19  1  0  0  0  0
 10 20  1  0  0  0  0
 10 21  1  0  0  0  0
 10 22  1  0  0  0  0
 11 13  1  0  0  0  0
 11 23  1  0  0  0  0
 12 13  2  0  0  0  0
 12 24  1  0  0  0  0
 13 25  1  0  0  0  0
M  END
> <PUBCHEM_COMPOUND_CID>
25803424

> <PUBCHEM_COMPOUND_CANONICALIZED>
1

> <PUBCHEM_CACTVS_COMPLEXITY>
172

> <PUBCHEM_CACTVS_HBOND_ACCEPTOR>
1

> <PUBCHEM_CACTVS_HBOND_DONOR>
1

> <PUBCHEM_CACTVS_ROTATABLE_BOND>
2

> <PUBCHEM_CACTVS_SUBSKEYS>
AAADccByIAAAAAAAAAAAAAAAAAAAAWAAAAAwAAAAAAAAAFgB8AAAHgAACAAADAjhngYywPMMEgCgAyRiRACCgCAhAiAI2CA4ZJgKMOLAkZGEIAhggADYyAcQgIAOAAAAAAACAAAAAAAAAAQAAAAAAAAAAA==

> <PUBCHEM_IUPAC_OPENEYE_NAME>
2-(2-methylindol-1-yl)ethanol

> <PUBCHEM_IUPAC_CAS_NAME>
2-(2-methyl-1-indolyl)ethanol

> <PUBCHEM_IUPAC_NAME>
2-(2-methylindol-1-yl)ethanol

> <PUBCHEM_IUPAC_SYSTEMATIC_NAME>
2-(2-methylindol-1-yl)ethanol

> <PUBCHEM_IUPAC_TRADITIONAL_NAME>
2-(2-methylindol-1-yl)ethanol

> <PUBCHEM_IUPAC_INCHI>
InChI=1S/C11H13NO/c1-9-8-10-4-2-3-5-11(10)12(9)6-7-13/h2-5,8,13H,6-7H2,1H3

> <PUBCHEM_IUPAC_INCHIKEY>
UGWPLPRMZKDWIK-UHFFFAOYSA-N

> <PUBCHEM_XLOGP3>
2.1

> <PUBCHEM_EXACT_MASS>
175.099714

> <PUBCHEM_MOLECULAR_FORMULA>
C11H13NO

> <PUBCHEM_MOLECULAR_WEIGHT>
175.22702

> <PUBCHEM_OPENEYE_CAN_SMILES>
CC1=CC2=CC=CC=C2N1CCO

> <PUBCHEM_OPENEYE_ISO_SMILES>
CC1=CC2=CC=CC=C2N1CCO

> <PUBCHEM_CACTVS_TPSA>
25.2

> <PUBCHEM_MONOISOTOPIC_WEIGHT>
175.099714

> <PUBCHEM_TOTAL_CHARGE>
0

> <PUBCHEM_HEAVY_ATOM_COUNT>
13

> <PUBCHEM_ATOM_DEF_STEREO_COUNT>
0

> <PUBCHEM_ATOM_UDEF_STEREO_COUNT>
0

> <PUBCHEM_BOND_DEF_STEREO_COUNT>
0

> <PUBCHEM_BOND_UDEF_STEREO_COUNT>
0

> <PUBCHEM_ISOTOPIC_ATOM_COUNT>
0

> <PUBCHEM_COMPONENT_COUNT>
1

> <PUBCHEM_CACTVS_TAUTO_COUNT>
1

> <PUBCHEM_COORDINATE_TYPE>
1
5
255

> <PUBCHEM_BONDANNOTATIONS>
11  13  8
12  13  8
2  3  8
2  4  8
3  5  8
3  8  8
4  7  8
5  11  8
5  7  8
8  12  8

$$$$
25803425
  -OEChem-05221314432D

 29 30  0     0  0  0  0  0  0999 V2000
    7.2566    1.7644    0.0000 O   0  0  0  0  0  0  0  0  0  0  0  0
    4.6783   -0.5490    0.0000 N   0  0  0  0  0  0  0  0  0  0  0  0
    4.9889    0.4015    0.0000 C   0  0  0  0  0  0  0  0  0  0  0  0
    3.7320   -0.8538    0.0000 C   0  0  0  0  0  0  0  0  0  0  0  0
    5.2619   -1.3538    0.0000 C   0  0  0  0  0  0  0  0  0  0  0  0
    3.7320   -1.8538    0.0000 C   0  0  0  0  0  0  0  0  0  0  0  0
    5.9674    0.6077    0.0000 C   0  0  0  0  0  0  0  0  0  0  0  0
    4.6783   -2.1585    0.0000 C   0  0  0  0  0  0  0  0  0  0  0  0
    2.8660   -0.3538    0.0000 C   0  0  0  0  0  0  0  0  0  0  0  0
    6.2619   -1.3538    0.0000 C   0  0  0  0  0  0  0  0  0  0  0  0
    2.8660   -2.3538    0.0000 C   0  0  0  0  0  0  0  0  0  0  0  0
    6.2781    1.5582    0.0000 C   0  0  0  0  0  0  0  0  0  0  0  0
    2.0000   -0.8538    0.0000 C   0  0  0  0  0  0  0  0  0  0  0  0
    2.0000   -1.8538    0.0000 C   0  0  0  0  0  0  0  0  0  0  0  0
    4.9684    1.0211    0.0000 H   0  0  0  0  0  0  0  0  0  0  0  0
    4.3751    0.4888    0.0000 H   0  0  0  0  0  0  0  0  0  0  0  0
    5.9880   -0.0120    0.0000 H   0  0  0  0  0  0  0  0  0  0  0  0
    6.5812    0.5204    0.0000 H   0  0  0  0  0  0  0  0  0  0  0  0
    4.8709   -2.7478    0.0000 H   0  0  0  0  0  0  0  0  0  0  0  0
    2.8660    0.2662    0.0000 H   0  0  0  0  0  0  0  0  0  0  0  0
    6.2619   -1.9738    0.0000 H   0  0  0  0  0  0  0  0  0  0  0  0
    6.8819   -1.3538    0.0000 H   0  0  0  0  0  0  0  0  0  0  0  0
    6.2619   -0.7338    0.0000 H   0  0  0  0  0  0  0  0  0  0  0  0
    2.8660   -2.9738    0.0000 H   0  0  0  0  0  0  0  0  0  0  0  0
    6.2575    2.1779    0.0000 H   0  0  0  0  0  0  0  0  0  0  0  0
    5.6643    1.6456    0.0000 H   0  0  0  0  0  0  0  0  0  0  0  0
    1.4631   -0.5438    0.0000 H   0  0  0  0  0  0  0  0  0  0  0  0
    1.4631   -2.1638    0.0000 H   0  0  0  0  0  0  0  0  0  0  0  0
    7.4492    2.3538    0.0000 H   0  0  0  0  0  0  0  0  0  0  0  0
  1 12  1  0  0  0  0
  1 29  1  0  0  0  0
  2  3  1  0  0  0  0
  2  4  1  0  0  0  0
  2  5  1  0  0  0  0
  3  7  1  0  0  0  0
  3 15  1  0  0  0  0
  3 16  1  0  0  0  0
  4  6  1  0  0  0  0
  4  9  2  0  0  0  0
  5  8  2  0  0  0  0
  5 10  1  0  0  0  0
  6  8  1  0  0  0  0
  6 11  2  0  0  0  0
  7 12  1  0  0  0  0
  7 17  1  0  0  0  0
  7 18  1  0  0  0  0
  8 19  1  0  0  0  0
  9 13  1  0  0  0  0
  9 20  1  0  0  0  0
 10 21  1  0  0  0  0
 10 22  1  0  0  0  0
 10 23  1  0  0  0  0
 11 14  1  0  0  0  0
 11 24  1  0  0  0  0
 12 25  1  0  0  0  0
 12 26  1  0  0  0  0
 13 14  2  0  0  0  0
 13 27  1  0  0  0  0
 14 28  1  0  0  0  0
M  END
> <PUBCHEM_COMPOUND_CID>
25803425

> <PUBCHEM_COMPOUND_CANONICALIZED>
1

> <PUBCHEM_CACTVS_COMPLEXITY>
183

> <PUBCHEM_CACTVS_HBOND_ACCEPTOR>
1

> <PUBCHEM_CACTVS_HBOND_DONOR>
1

> <PUBCHEM_CACTVS_ROTATABLE_BOND>
3

> <PUBCHEM_CACTVS_SUBSKEYS>
AAADccByIAAAAAAAAAAAAAAAAAAAAWAAAAAwAAAAAAAAAFgB8AAAHgAACAAADAjhngYywPMMEgCgAyRiRACCgCAhAiAI2CA4ZJgIMOLAkZGEYAhigADIyAcQgIAOAAAAAAACAAAAAAAAAAQAAAAAAAAAAA==

> <PUBCHEM_IUPAC_OPENEYE_NAME>
3-(2-methylindol-1-yl)propan-1-ol

> <PUBCHEM_IUPAC_CAS_NAME>
3-(2-methyl-1-indolyl)-1-propanol

> <PUBCHEM_IUPAC_NAME>
3-(2-methylindol-1-yl)propan-1-ol

> <PUBCHEM_IUPAC_SYSTEMATIC_NAME>
3-(2-methylindol-1-yl)propan-1-ol

> <PUBCHEM_IUPAC_TRADITIONAL_NAME>
3-(2-methylindol-1-yl)propan-1-ol

> <PUBCHEM_IUPAC_INCHI>
InChI=1S/C12H15NO/c1-10-9-11-5-2-3-6-12(11)13(10)7-4-8-14/h2-3,5-6,9,14H,4,7-8H2,1H3

> <PUBCHEM_IUPAC_INCHIKEY>
ZBMAYJADIOXKGW-UHFFFAOYSA-N

> <PUBCHEM_XLOGP3>
2.4

> <PUBCHEM_EXACT_MASS>
189.115364

> <PUBCHEM_MOLECULAR_FORMULA>
C12H15NO

> <PUBCHEM_MOLECULAR_WEIGHT>
189.2536

> <PUBCHEM_OPENEYE_CAN_SMILES>
CC1=CC2=CC=CC=C2N1CCCO

> <PUBCHEM_OPENEYE_ISO_SMILES>
CC1=CC2=CC=CC=C2N1CCCO

> <PUBCHEM_CACTVS_TPSA>
25.2

> <PUBCHEM_MONOISOTOPIC_WEIGHT>
189.115364

> <PUBCHEM_TOTAL_CHARGE>
0

> <PUBCHEM_HEAVY_ATOM_COUNT>
14

> <PUBCHEM_ATOM_DEF_STEREO_COUNT>
0

> <PUBCHEM_ATOM_UDEF_STEREO_COUNT>
0

> <PUBCHEM_BOND_DEF_STEREO_COUNT>
0

> <PUBCHEM_BOND_UDEF_STEREO_COUNT>
0

> <PUBCHEM_ISOTOPIC_ATOM_COUNT>
0

> <PUBCHEM_COMPONENT_COUNT>
1

> <PUBCHEM_CACTVS_TAUTO_COUNT>
1

> <PUBCHEM_COORDINATE_TYPE>
1
5
255

> <PUBCHEM_BONDANNOTATIONS>
11  14  8
13  14  8
2  4  8
2  5  8
4  6  8
4  9  8
5  8  8
6  11  8
6  8  8
9  13  8

$$$$
25806051
  -OEChem-05221314432D

 54 55  0     1  0  0  0  0  0999 V2000
    5.4641   -0.7500    0.0000 O   0  0  0  0  0  0  0  0  0  0  0  0
    5.4641    2.2500    0.0000 O   0  0  0  0  0  0  0  0  0  0  0  0
    7.1962    1.2500    0.0000 O   0  0  0  0  0  0  0  0  0  0  0  0
    3.7320    1.2500    0.0000 O   0  0  0  0  0  0  0  0  0  0  0  0
    3.7320   -0.7500    0.0000 O   0  0  0  0  0  0  0  0  0  0  0  0
    7.1962   -1.7500    0.0000 O   0  0  0  0  0  0  0  0  0  0  0  0
    7.1962    2.2500    0.0000 O   0  0  0  0  0  0  0  0  0  0  0  0
    8.0622   -0.2500    0.0000 O   0  0  0  0  0  0  0  0  0  0  0  0
    2.8660   -0.2500    0.0000 O   0  0  0  0  0  0  0  0  0  0  0  0
    8.9282   -1.7500    0.0000 O   0  0  0  0  0  0  0  0  0  0  0  0
    5.4641    1.2500    0.0000 C   0  0  1  0  0  0  0  0  0  0  0  0
    6.3301    0.7500    0.0000 C   0  0  1  0  0  0  0  0  0  0  0  0
    4.5981    0.7500    0.0000 C   0  0  1  0  0  0  0  0  0  0  0  0
    6.3301   -0.2500    0.0000 C   0  0  1  0  0  0  0  0  0  0  0  0
    4.5981   -0.2500    0.0000 C   0  0  1  0  0  0  0  0  0  0  0  0
    7.1962   -0.7500    0.0000 C   0  0  0  0  0  0  0  0  0  0  0  0
    6.3301    2.7500    0.0000 C   0  0  0  0  0  0  0  0  0  0  0  0
    8.0622    0.7500    0.0000 C   0  0  0  0  0  0  0  0  0  0  0  0
    3.7320   -1.7500    0.0000 C   0  0  0  0  0  0  0  0  0  0  0  0
    2.8660    0.7500    0.0000 C   0  0  0  0  0  0  0  0  0  0  0  0
    6.3301    3.7500    0.0000 C   0  0  0  0  0  0  0  0  0  0  0  0
    8.9282    1.2500    0.0000 C   0  0  0  0  0  0  0  0  0  0  0  0
    8.0622   -2.2500    0.0000 C   0  0  0  0  0  0  0  0  0  0  0  0
    2.0000    1.2500    0.0000 C   0  0  0  0  0  0  0  0  0  0  0  0
    2.8660   -2.2500    0.0000 C   0  0  0  0  0  0  0  0  0  0  0  0
    4.5981   -2.2500    0.0000 C   0  0  0  0  0  0  0  0  0  0  0  0
    8.0622   -3.2500    0.0000 C   0  0  0  0  0  0  0  0  0  0  0  0
    2.8660   -3.2500    0.0000 C   0  0  0  0  0  0  0  0  0  0  0  0
    4.5981   -3.2500    0.0000 C   0  0  0  0  0  0  0  0  0  0  0  0
    3.7320   -3.7500    0.0000 C   0  0  0  0  0  0  0  0  0  0  0  0
    6.0010    1.5600    0.0000 H   0  0  0  0  0  0  0  0  0  0  0  0
    6.8671    0.4400    0.0000 H   0  0  0  0  0  0  0  0  0  0  0  0
    4.5981    1.3700    0.0000 H   0  0  0  0  0  0  0  0  0  0  0  0
    6.3301   -0.8700    0.0000 H   0  0  0  0  0  0  0  0  0  0  0  0
    4.5981   -0.8700    0.0000 H   0  0  0  0  0  0  0  0  0  0  0  0
    7.8067   -0.8577    0.0000 H   0  0  0  0  0  0  0  0  0  0  0  0
    7.4082   -0.1674    0.0000 H   0  0  0  0  0  0  0  0  0  0  0  0
    6.9501    3.7500    0.0000 H   0  0  0  0  0  0  0  0  0  0  0  0
    6.3301    4.3700    0.0000 H   0  0  0  0  0  0  0  0  0  0  0  0
    5.7101    3.7500    0.0000 H   0  0  0  0  0  0  0  0  0  0  0  0
    9.2382    0.7131    0.0000 H   0  0  0  0  0  0  0  0  0  0  0  0
    9.4651    1.5600    0.0000 H   0  0  0  0  0  0  0  0  0  0  0  0
    8.6182    1.7869    0.0000 H   0  0  0  0  0  0  0  0  0  0  0  0
    2.3100    1.7869    0.0000 H   0  0  0  0  0  0  0  0  0  0  0  0
    1.4631    1.5600    0.0000 H   0  0  0  0  0  0  0  0  0  0  0  0
    1.6900    0.7131    0.0000 H   0  0  0  0  0  0  0  0  0  0  0  0
    2.3291   -1.9400    0.0000 H   0  0  0  0  0  0  0  0  0  0  0  0
    5.1350   -1.9400    0.0000 H   0  0  0  0  0  0  0  0  0  0  0  0
    7.4422   -3.2500    0.0000 H   0  0  0  0  0  0  0  0  0  0  0  0
    8.0622   -3.8700    0.0000 H   0  0  0  0  0  0  0  0  0  0  0  0
    8.6822   -3.2500    0.0000 H   0  0  0  0  0  0  0  0  0  0  0  0
    2.3291   -3.5600    0.0000 H   0  0  0  0  0  0  0  0  0  0  0  0
    5.1350   -3.5600    0.0000 H   0  0  0  0  0  0  0  0  0  0  0  0
    3.7320   -4.3700    0.0000 H   0  0  0  0  0  0  0  0  0  0  0  0
  1 14  1  0  0  0  0
  1 15  1  0  0  0  0
 11  2  1  1  0  0  0
  2 17  1  0  0  0  0
 12  3  1  6  0  0  0
  3 18  1  0  0  0  0
 13  4  1  1  0  0  0
  4 20  1  0  0  0  0
 15  5  1  1  0  0  0
  5 19  1  0  0  0  0
  6 16  1  0  0  0  0
  6 23  1  0  0  0  0
  7 17  2  0  0  0  0
  8 18  2  0  0  0  0
  9 20  2  0  0  0  0
 10 23  2  0  0  0  0
 11 12  1  0  0  0  0
 11 13  1  0  0  0  0
 11 31  1  0  0  0  0
 12 14  1  0  0  0  0
 12 32  1  0  0  0  0
 13 15  1  0  0  0  0
 13 33  1  0  0  0  0
 14 16  1  1  0  0  0
 14 34  1  0  0  0  0
 15 35  1  0  0  0  0
 16 36  1  0  0  0  0
 16 37  1  0  0  0  0
 17 21  1  0  0  0  0
 18 22  1  0  0  0  0
 19 25  2  0  0  0  0
 19 26  1  0  0  0  0
 20 24  1  0  0  0  0
 21 38  1  0  0  0  0
 21 39  1  0  0  0  0
 21 40  1  0  0  0  0
 22 41  1  0  0  0  0
 22 42  1  0  0  0  0
 22 43  1  0  0  0  0
 23 27  1  0  0  0  0
 24 44  1  0  0  0  0
 24 45  1  0  0  0  0
 24 46  1  0  0  0  0
 25 28  1  0  0  0  0
 25 47  1  0  0  0  0
 26 29  2  0  0  0  0
 26 48  1  0  0  0  0
 27 49  1  0  0  0  0
 27 50  1  0  0  0  0
 27 51  1  0  0  0  0
 28 30  2  0  0  0  0
 28 52  1  0  0  0  0
 29 30  1  0  0  0  0
 29 53  1  0  0  0  0
 30 54  1  0  0  0  0
M  END
> <PUBCHEM_COMPOUND_CID>
25806051

> <PUBCHEM_COMPOUND_CANONICALIZED>
1

> <PUBCHEM_CACTVS_COMPLEXITY>
627

> <PUBCHEM_CACTVS_HBOND_ACCEPTOR>
10

> <PUBCHEM_CACTVS_HBOND_DONOR>
0

> <PUBCHEM_CACTVS_ROTATABLE_BOND>
11

> <PUBCHEM_CACTVS_SUBSKEYS>
AAADceB4PAAAAAAAAAAAAAAAAAAAAAAAAAA0QAAAAAAAAAABAAAAGgAAAAAACBSwkAMyDoAABACIACDSCAACCAAgIAAIiAAGCIgdJiKEMRqiOCClwBEOqAfAYAwAAAAAAAAAAAAAAAAAAAAAAAAAAAAAAA==

> <PUBCHEM_IUPAC_OPENEYE_NAME>
[(2R,3R,4S,5S,6S)-3,4,5-triacetoxy-6-phenoxy-tetrahydropyran-2-yl]methyl acetate

> <PUBCHEM_IUPAC_CAS_NAME>
acetic acid [(2R,3R,4S,5S,6S)-3,4,5-triacetyloxy-6-phenoxy-2-oxanyl]methyl ester

> <PUBCHEM_IUPAC_NAME>
[(2R,3R,4S,5S,6S)-3,4,5-triacetyloxy-6-phenoxyoxan-2-yl]methyl acetate

> <PUBCHEM_IUPAC_SYSTEMATIC_NAME>
[(2R,3R,4S,5S,6S)-3,4,5-triacetyloxy-6-phenoxy-oxan-2-yl]methyl ethanoate

> <PUBCHEM_IUPAC_TRADITIONAL_NAME>
acetic acid [(2R,3R,4S,5S,6S)-3,4,5-triacetoxy-6-phenoxy-tetrahydropyran-2-yl]methyl ester

> <PUBCHEM_IUPAC_INCHI>
InChI=1S/C20H24O10/c1-11(21)25-10-16-17(26-12(2)22)18(27-13(3)23)19(28-14(4)24)20(30-16)29-15-8-6-5-7-9-15/h5-9,16-20H,10H2,1-4H3/t16-,17-,18+,19+,20-/m1/s1

> <PUBCHEM_IUPAC_INCHIKEY>
HPKPFIHCMIKXMU-SWBPCFCJSA-N

> <PUBCHEM_XLOGP3>
2.4

> <PUBCHEM_EXACT_MASS>
424.136947

> <PUBCHEM_MOLECULAR_FORMULA>
C20H24O10

> <PUBCHEM_MOLECULAR_WEIGHT>
424.39856

> <PUBCHEM_OPENEYE_CAN_SMILES>
CC(=O)OCC1C(C(C(C(O1)OC2=CC=CC=C2)OC(=O)C)OC(=O)C)OC(=O)C

> <PUBCHEM_OPENEYE_ISO_SMILES>
CC(=O)OC[C@@H]1[C@H]([C@@H]([C@@H]([C@@H](O1)OC2=CC=CC=C2)OC(=O)C)OC(=O)C)OC(=O)C

> <PUBCHEM_CACTVS_TPSA>
124

> <PUBCHEM_MONOISOTOPIC_WEIGHT>
424.136947

> <PUBCHEM_TOTAL_CHARGE>
0

> <PUBCHEM_HEAVY_ATOM_COUNT>
30

> <PUBCHEM_ATOM_DEF_STEREO_COUNT>
5

> <PUBCHEM_ATOM_UDEF_STEREO_COUNT>
0

> <PUBCHEM_BOND_DEF_STEREO_COUNT>
0

> <PUBCHEM_BOND_UDEF_STEREO_COUNT>
0

> <PUBCHEM_ISOTOPIC_ATOM_COUNT>
0

> <PUBCHEM_COMPONENT_COUNT>
1

> <PUBCHEM_CACTVS_TAUTO_COUNT>
1

> <PUBCHEM_COORDINATE_TYPE>
1
5
255

> <PUBCHEM_BONDANNOTATIONS>
14  16  5
19  25  8
19  26  8
11  2  5
25  28  8
26  29  8
28  30  8
29  30  8
12  3  6
13  4  5
15  5  5

$$$$
25808737
  -OEChem-05221314432D

 42 42  0     0  0  0  0  0  0999 V2000
    4.5981   -1.1830    0.0000 O   0  0  0  0  0  0  0  0  0  0  0  0
    5.4641    3.3170    0.0000 N   0  3  0  0  0  0  0  0  0  0  0  0
    3.7320    0.3170    0.0000 N   0  0  0  0  0  0  0  0  0  0  0  0
    2.8660   -1.1830    0.0000 N   0  0  0  0  0  0  0  0  0  0  0  0
    4.5981    1.8170    0.0000 C   0  0  0  0  0  0  0  0  0  0  0  0
    4.5981    2.8170    0.0000 C   0  0  0  0  0  0  0  0  0  0  0  0
    4.5981    0.8170    0.0000 C   0  0  0  0  0  0  0  0  0  0  0  0
    5.5981    1.8170    0.0000 C   0  0  0  0  0  0  0  0  0  0  0  0
    3.5981    1.8170    0.0000 C   0  0  0  0  0  0  0  0  0  0  0  0
    6.3301    3.8170    0.0000 C   0  0  0  0  0  0  0  0  0  0  0  0
    4.9641    4.1830    0.0000 C   0  0  0  0  0  0  0  0  0  0  0  0
    3.7320   -0.6830    0.0000 C   0  0  0  0  0  0  0  0  0  0  0  0
    2.8660   -2.1830    0.0000 C   0  0  0  0  0  0  0  0  0  0  0  0
    3.7320   -2.6830    0.0000 C   0  0  0  0  0  0  0  0  0  0  0  0
    2.0000   -2.6830    0.0000 C   0  0  0  0  0  0  0  0  0  0  0  0
    3.7320   -3.6830    0.0000 C   0  0  0  0  0  0  0  0  0  0  0  0
    2.0000   -3.6830    0.0000 C   0  0  0  0  0  0  0  0  0  0  0  0
    2.8660   -4.1830    0.0000 C   0  0  0  0  0  0  0  0  0  0  0  0
    4.3860    3.3996    0.0000 H   0  0  0  0  0  0  0  0  0  0  0  0
    3.9875    2.7093    0.0000 H   0  0  0  0  0  0  0  0  0  0  0  0
    5.7741    2.7800    0.0000 H   0  0  0  0  0  0  0  0  0  0  0  0
    4.8101    0.2344    0.0000 H   0  0  0  0  0  0  0  0  0  0  0  0
    5.2087    0.9246    0.0000 H   0  0  0  0  0  0  0  0  0  0  0  0
    3.5981    2.4370    0.0000 H   0  0  0  0  0  0  0  0  0  0  0  0
    5.5981    1.1970    0.0000 H   0  0  0  0  0  0  0  0  0  0  0  0
    6.2181    1.8170    0.0000 H   0  0  0  0  0  0  0  0  0  0  0  0
    5.5981    2.4370    0.0000 H   0  0  0  0  0  0  0  0  0  0  0  0
    2.9781    1.8170    0.0000 H   0  0  0  0  0  0  0  0  0  0  0  0
    3.5981    1.1970    0.0000 H   0  0  0  0  0  0  0  0  0  0  0  0
    6.6401    3.2800    0.0000 H   0  0  0  0  0  0  0  0  0  0  0  0
    6.8671    4.1270    0.0000 H   0  0  0  0  0  0  0  0  0  0  0  0
    6.0201    4.3539    0.0000 H   0  0  0  0  0  0  0  0  0  0  0  0
    5.5010    4.4930    0.0000 H   0  0  0  0  0  0  0  0  0  0  0  0
    4.6541    4.7200    0.0000 H   0  0  0  0  0  0  0  0  0  0  0  0
    4.4272    3.8730    0.0000 H   0  0  0  0  0  0  0  0  0  0  0  0
    3.1951    0.6270    0.0000 H   0  0  0  0  0  0  0  0  0  0  0  0
    2.3291   -0.8730    0.0000 H   0  0  0  0  0  0  0  0  0  0  0  0
    4.2690   -2.3730    0.0000 H   0  0  0  0  0  0  0  0  0  0  0  0
    1.4631   -2.3730    0.0000 H   0  0  0  0  0  0  0  0  0  0  0  0
    4.2690   -3.9930    0.0000 H   0  0  0  0  0  0  0  0  0  0  0  0
    1.4631   -3.9930    0.0000 H   0  0  0  0  0  0  0  0  0  0  0  0
    2.8660   -4.8030    0.0000 H   0  0  0  0  0  0  0  0  0  0  0  0
  1 12  2  0  0  0  0
  2  6  1  0  0  0  0
  2 10  1  0  0  0  0
  2 11  1  0  0  0  0
  2 21  1  0  0  0  0
  3  7  1  0  0  0  0
  3 12  1  0  0  0  0
  3 36  1  0  0  0  0
  4 12  1  0  0  0  0
  4 13  1  0  0  0  0
  4 37  1  0  0  0  0
  5  6  1  0  0  0  0
  5  7  1  0  0  0  0
  5  8  1  0  0  0  0
  5  9  1  0  0  0  0
  6 19  1  0  0  0  0
  6 20  1  0  0  0  0
  7 22  1  0  0  0  0
  7 23  1  0  0  0  0
  8 25  1  0  0  0  0
  8 26  1  0  0  0  0
  8 27  1  0  0  0  0
  9 24  1  0  0  0  0
  9 28  1  0  0  0  0
  9 29  1  0  0  0  0
 10 30  1  0  0  0  0
 10 31  1  0  0  0  0
 10 32  1  0  0  0  0
 11 33  1  0  0  0  0
 11 34  1  0  0  0  0
 11 35  1  0  0  0  0
 13 14  2  0  0  0  0
 13 15  1  0  0  0  0
 14 16  1  0  0  0  0
 14 38  1  0  0  0  0
 15 17  2  0  0  0  0
 15 39  1  0  0  0  0
 16 18  2  0  0  0  0
 16 40  1  0  0  0  0
 17 18  1  0  0  0  0
 17 41  1  0  0  0  0
 18 42  1  0  0  0  0
M  CHG  1   2   1
M  END
> <PUBCHEM_COMPOUND_CID>
25808737

> <PUBCHEM_COMPOUND_CANONICALIZED>
1

> <PUBCHEM_CACTVS_COMPLEXITY>
258

> <PUBCHEM_CACTVS_HBOND_ACCEPTOR>
1

> <PUBCHEM_CACTVS_HBOND_DONOR>
3

> <PUBCHEM_CACTVS_ROTATABLE_BOND>
5

> <PUBCHEM_CACTVS_SUBSKEYS>
AAADceBzIAAAAAAAAAAAAAAAAAAAAAAAAAAwAAAAAAAAAAABAAAAHgAQAAAADgjBEAQzwIPAAACIACRCUACCAAAhAgAIiIAIZIiIICLA0ZGEIAholgJIyCcQAAAAAAAAAAAAAAAAAAAAAAAAAAAAAAAAAA==

> <PUBCHEM_IUPAC_OPENEYE_NAME>
[2,2-dimethyl-3-(phenylcarbamoylamino)propyl]-dimethyl-ammonium

> <PUBCHEM_IUPAC_CAS_NAME>
[3-[[anilino(oxo)methyl]amino]-2,2-dimethylpropyl]-dimethylammonium

> <PUBCHEM_IUPAC_NAME>
[2,2-dimethyl-3-(phenylcarbamoylamino)propyl]-dimethylazanium

> <PUBCHEM_IUPAC_SYSTEMATIC_NAME>
[2,2-dimethyl-3-(phenylcarbamoylamino)propyl]-dimethyl-azanium

> <PUBCHEM_IUPAC_TRADITIONAL_NAME>
[2,2-dimethyl-3-(phenylcarbamoylamino)propyl]-dimethyl-ammonium

> <PUBCHEM_IUPAC_INCHI>
InChI=1S/C14H23N3O/c1-14(2,11-17(3)4)10-15-13(18)16-12-8-6-5-7-9-12/h5-9H,10-11H2,1-4H3,(H2,15,16,18)/p+1

> <PUBCHEM_IUPAC_INCHIKEY>
JULQLXOWTGKYMT-UHFFFAOYSA-O

> <PUBCHEM_XLOGP3>
2.5

> <PUBCHEM_EXACT_MASS>
250.191937

> <PUBCHEM_MOLECULAR_FORMULA>
C14H24N3O+

> <PUBCHEM_MOLECULAR_WEIGHT>
250.35986

> <PUBCHEM_OPENEYE_CAN_SMILES>
CC(C)(CNC(=O)NC1=CC=CC=C1)C[NH+](C)C

> <PUBCHEM_OPENEYE_ISO_SMILES>
CC(C)(CNC(=O)NC1=CC=CC=C1)C[NH+](C)C

> <PUBCHEM_CACTVS_TPSA>
45.6

> <PUBCHEM_MONOISOTOPIC_WEIGHT>
250.191937

> <PUBCHEM_TOTAL_CHARGE>
1

> <PUBCHEM_HEAVY_ATOM_COUNT>
18

> <PUBCHEM_ATOM_DEF_STEREO_COUNT>
0

> <PUBCHEM_ATOM_UDEF_STEREO_COUNT>
0

> <PUBCHEM_BOND_DEF_STEREO_COUNT>
0

> <PUBCHEM_BOND_UDEF_STEREO_COUNT>
0

> <PUBCHEM_ISOTOPIC_ATOM_COUNT>
0

> <PUBCHEM_COMPONENT_COUNT>
1

> <PUBCHEM_CACTVS_TAUTO_COUNT>
3

> <PUBCHEM_COORDINATE_TYPE>
1
5
255

> <PUBCHEM_BONDANNOTATIONS>
13  14  8
13  15  8
14  16  8
15  17  8
16  18  8
17  18  8

$$$$
25817819
  -OEChem-05221314432D

 32 33  0     1  0  0  0  0  0999 V2000
    8.5458    2.5655    0.0000 Cl  0  0  0  0  0  0  0  0  0  0  0  0
    7.9244    0.6644    0.0000 O   0  0  0  0  0  0  0  0  0  0  0  0
    4.6783   -2.5142    0.0000 N   0  0  0  0  0  0  0  0  0  0  0  0
    6.2781    1.2025    0.0000 N   0  0  0  0  0  0  0  0  0  0  0  0
    4.6783   -0.9048    0.0000 C   0  0  0  0  0  0  0  0  0  0  0  0
    4.9889    0.0458    0.0000 C   0  0  0  0  0  0  0  0  0  0  0  0
    3.7320   -1.2095    0.0000 C   0  0  0  0  0  0  0  0  0  0  0  0
    5.9674    0.2520    0.0000 C   0  0  0  0  0  0  0  0  0  0  0  0
    3.7320   -2.2095    0.0000 C   0  0  0  0  0  0  0  0  0  0  0  0
    5.2619   -1.7095    0.0000 C   0  0  0  0  0  0  0  0  0  0  0  0
    2.8660   -0.7095    0.0000 C   0  0  0  0  0  0  0  0  0  0  0  0
    2.8660   -2.7095    0.0000 C   0  0  0  0  0  0  0  0  0  0  0  0
    2.0000   -1.2095    0.0000 C   0  0  0  0  0  0  0  0  0  0  0  0
    2.0000   -2.2095    0.0000 C   0  0  0  0  0  0  0  0  0  0  0  0
    7.2566    1.4087    0.0000 C   0  0  0  0  0  0  0  0  0  0  0  0
    7.5673    2.3592    0.0000 C   0  0  1  0  0  0  0  0  0  0  0  0
    6.8994    3.1035    0.0000 C   0  0  0  0  0  0  0  0  0  0  0  0
    4.9684    0.6654    0.0000 H   0  0  0  0  0  0  0  0  0  0  0  0
    4.3751    0.1331    0.0000 H   0  0  0  0  0  0  0  0  0  0  0  0
    5.9880   -0.3677    0.0000 H   0  0  0  0  0  0  0  0  0  0  0  0
    6.5812    0.1646    0.0000 H   0  0  0  0  0  0  0  0  0  0  0  0
    5.8819   -1.7095    0.0000 H   0  0  0  0  0  0  0  0  0  0  0  0
    4.8709   -3.1035    0.0000 H   0  0  0  0  0  0  0  0  0  0  0  0
    2.8660   -0.0895    0.0000 H   0  0  0  0  0  0  0  0  0  0  0  0
    5.8640    1.6640    0.0000 H   0  0  0  0  0  0  0  0  0  0  0  0
    2.8660   -3.3295    0.0000 H   0  0  0  0  0  0  0  0  0  0  0  0
    1.4631   -0.8995    0.0000 H   0  0  0  0  0  0  0  0  0  0  0  0
    1.4631   -2.5195    0.0000 H   0  0  0  0  0  0  0  0  0  0  0  0
    7.9813    1.8978    0.0000 H   0  0  0  0  0  0  0  0  0  0  0  0
    7.3609    3.5176    0.0000 H   0  0  0  0  0  0  0  0  0  0  0  0
    6.4854    3.5650    0.0000 H   0  0  0  0  0  0  0  0  0  0  0  0
    6.4380    2.6895    0.0000 H   0  0  0  0  0  0  0  0  0  0  0  0
 16  1  1  1  0  0  0
  2 15  2  0  0  0  0
  3  9  1  0  0  0  0
  3 10  1  0  0  0  0
  3 23  1  0  0  0  0
  4  8  1  0  0  0  0
  4 15  1  0  0  0  0
  4 25  1  0  0  0  0
  5  6  1  0  0  0  0
  5  7  1  0  0  0  0
  5 10  2  0  0  0  0
  6  8  1  0  0  0  0
  6 18  1  0  0  0  0
  6 19  1  0  0  0  0
  7  9  1  0  0  0  0
  7 11  2  0  0  0  0
  8 20  1  0  0  0  0
  8 21  1  0  0  0  0
  9 12  2  0  0  0  0
 10 22  1  0  0  0  0
 11 13  1  0  0  0  0
 11 24  1  0  0  0  0
 12 14  1  0  0  0  0
 12 26  1  0  0  0  0
 13 14  2  0  0  0  0
 13 27  1  0  0  0  0
 14 28  1  0  0  0  0
 15 16  1  0  0  0  0
 16 17  1  0  0  0  0
 16 29  1  0  0  0  0
 17 30  1  0  0  0  0
 17 31  1  0  0  0  0
 17 32  1  0  0  0  0
M  END
> <PUBCHEM_COMPOUND_CID>
25817819

> <PUBCHEM_COMPOUND_CANONICALIZED>
1

> <PUBCHEM_CACTVS_COMPLEXITY>
272

> <PUBCHEM_CACTVS_HBOND_ACCEPTOR>
1

> <PUBCHEM_CACTVS_HBOND_DONOR>
2

> <PUBCHEM_CACTVS_ROTATABLE_BOND>
4

> <PUBCHEM_CACTVS_SUBSKEYS>
AAADccBzIAAEAAAAAAAAAAAAAAAAAWAAAAAwAAAAAAAAAFgB8AAAHgIQAAAADAvBnkQ+wPLJkACoAzV3VACCgCAxAiAI2aE4ZJhIIOLAkZHEIAhglgDIyAcQgMAOgAAAAAACAAAAAAAAAAQAAAAAAAAAAA==

> <PUBCHEM_IUPAC_OPENEYE_NAME>
(2R)-2-chloro-N-[2-(1H-indol-3-yl)ethyl]propanamide

> <PUBCHEM_IUPAC_CAS_NAME>
(2R)-2-chloro-N-[2-(1H-indol-3-yl)ethyl]propanamide

> <PUBCHEM_IUPAC_NAME>
(2R)-2-chloro-N-[2-(1H-indol-3-yl)ethyl]propanamide

> <PUBCHEM_IUPAC_SYSTEMATIC_NAME>
(2R)-2-chloranyl-N-[2-(1H-indol-3-yl)ethyl]propanamide

> <PUBCHEM_IUPAC_TRADITIONAL_NAME>
(2R)-2-chloro-N-[2-(1H-indol-3-yl)ethyl]propionamide

> <PUBCHEM_IUPAC_INCHI>
InChI=1S/C13H15ClN2O/c1-9(14)13(17)15-7-6-10-8-16-12-5-3-2-4-11(10)12/h2-5,8-9,16H,6-7H2,1H3,(H,15,17)/t9-/m1/s1

> <PUBCHEM_IUPAC_INCHIKEY>
FUGAXVJSGRGEBU-SECBINFHSA-N

> <PUBCHEM_XLOGP3>
2.8

> <PUBCHEM_EXACT_MASS>
250.087291

> <PUBCHEM_MOLECULAR_FORMULA>
C13H15ClN2O

> <PUBCHEM_MOLECULAR_WEIGHT>
250.724

> <PUBCHEM_OPENEYE_CAN_SMILES>
CC(C(=O)NCCC1=CNC2=CC=CC=C21)Cl

> <PUBCHEM_OPENEYE_ISO_SMILES>
C[C@H](C(=O)NCCC1=CNC2=CC=CC=C21)Cl

> <PUBCHEM_CACTVS_TPSA>
44.9

> <PUBCHEM_MONOISOTOPIC_WEIGHT>
250.087291

> <PUBCHEM_TOTAL_CHARGE>
0

> <PUBCHEM_HEAVY_ATOM_COUNT>
17

> <PUBCHEM_ATOM_DEF_STEREO_COUNT>
1

> <PUBCHEM_ATOM_UDEF_STEREO_COUNT>
0

> <PUBCHEM_BOND_DEF_STEREO_COUNT>
0

> <PUBCHEM_BOND_UDEF_STEREO_COUNT>
0

> <PUBCHEM_ISOTOPIC_ATOM_COUNT>
0

> <PUBCHEM_COMPONENT_COUNT>
1

> <PUBCHEM_CACTVS_TAUTO_COUNT>
2

> <PUBCHEM_COORDINATE_TYPE>
1
5
255

> <PUBCHEM_BONDANNOTATIONS>
16  1  5
11  13  8
12  14  8
13  14  8
3  10  8
3  9  8
5  10  8
5  7  8
7  11  8
7  9  8
9  12  8

$$$$
25817820
  -OEChem-05221314432D

 32 33  0     1  0  0  0  0  0999 V2000
    8.5458    2.5655    0.0000 Cl  0  0  0  0  0  0  0  0  0  0  0  0
    7.9244    0.6644    0.0000 O   0  0  0  0  0  0  0  0  0  0  0  0
    4.6783   -2.5142    0.0000 N   0  0  0  0  0  0  0  0  0  0  0  0
    6.2781    1.2025    0.0000 N   0  0  0  0  0  0  0  0  0  0  0  0
    4.6783   -0.9048    0.0000 C   0  0  0  0  0  0  0  0  0  0  0  0
    4.9889    0.0458    0.0000 C   0  0  0  0  0  0  0  0  0  0  0  0
    3.7320   -1.2095    0.0000 C   0  0  0  0  0  0  0  0  0  0  0  0
    5.9674    0.2520    0.0000 C   0  0  0  0  0  0  0  0  0  0  0  0
    3.7320   -2.2095    0.0000 C   0  0  0  0  0  0  0  0  0  0  0  0
    5.2619   -1.7095    0.0000 C   0  0  0  0  0  0  0  0  0  0  0  0
    2.8660   -0.7095    0.0000 C   0  0  0  0  0  0  0  0  0  0  0  0
    2.8660   -2.7095    0.0000 C   0  0  0  0  0  0  0  0  0  0  0  0
    2.0000   -1.2095    0.0000 C   0  0  0  0  0  0  0  0  0  0  0  0
    2.0000   -2.2095    0.0000 C   0  0  0  0  0  0  0  0  0  0  0  0
    7.2566    1.4087    0.0000 C   0  0  0  0  0  0  0  0  0  0  0  0
    7.5673    2.3592    0.0000 C   0  0  2  0  0  0  0  0  0  0  0  0
    6.8994    3.1035    0.0000 C   0  0  0  0  0  0  0  0  0  0  0  0
    4.9684    0.6654    0.0000 H   0  0  0  0  0  0  0  0  0  0  0  0
    4.3751    0.1331    0.0000 H   0  0  0  0  0  0  0  0  0  0  0  0
    5.9880   -0.3677    0.0000 H   0  0  0  0  0  0  0  0  0  0  0  0
    6.5812    0.1646    0.0000 H   0  0  0  0  0  0  0  0  0  0  0  0
    5.8819   -1.7095    0.0000 H   0  0  0  0  0  0  0  0  0  0  0  0
    4.8709   -3.1035    0.0000 H   0  0  0  0  0  0  0  0  0  0  0  0
    2.8660   -0.0895    0.0000 H   0  0  0  0  0  0  0  0  0  0  0  0
    5.8640    1.6640    0.0000 H   0  0  0  0  0  0  0  0  0  0  0  0
    2.8660   -3.3295    0.0000 H   0  0  0  0  0  0  0  0  0  0  0  0
    1.4631   -0.8995    0.0000 H   0  0  0  0  0  0  0  0  0  0  0  0
    1.4631   -2.5195    0.0000 H   0  0  0  0  0  0  0  0  0  0  0  0
    7.9813    1.8978    0.0000 H   0  0  0  0  0  0  0  0  0  0  0  0
    7.3609    3.5176    0.0000 H   0  0  0  0  0  0  0  0  0  0  0  0
    6.4854    3.5650    0.0000 H   0  0  0  0  0  0  0  0  0  0  0  0
    6.4380    2.6895    0.0000 H   0  0  0  0  0  0  0  0  0  0  0  0
 16  1  1  6  0  0  0
  2 15  2  0  0  0  0
  3  9  1  0  0  0  0
  3 10  1  0  0  0  0
  3 23  1  0  0  0  0
  4  8  1  0  0  0  0
  4 15  1  0  0  0  0
  4 25  1  0  0  0  0
  5  6  1  0  0  0  0
  5  7  1  0  0  0  0
  5 10  2  0  0  0  0
  6  8  1  0  0  0  0
  6 18  1  0  0  0  0
  6 19  1  0  0  0  0
  7  9  1  0  0  0  0
  7 11  2  0  0  0  0
  8 20  1  0  0  0  0
  8 21  1  0  0  0  0
  9 12  2  0  0  0  0
 10 22  1  0  0  0  0
 11 13  1  0  0  0  0
 11 24  1  0  0  0  0
 12 14  1  0  0  0  0
 12 26  1  0  0  0  0
 13 14  2  0  0  0  0
 13 27  1  0  0  0  0
 14 28  1  0  0  0  0
 15 16  1  0  0  0  0
 16 17  1  0  0  0  0
 16 29  1  0  0  0  0
 17 30  1  0  0  0  0
 17 31  1  0  0  0  0
 17 32  1  0  0  0  0
M  END
> <PUBCHEM_COMPOUND_CID>
25817820

> <PUBCHEM_COMPOUND_CANONICALIZED>
1

> <PUBCHEM_CACTVS_COMPLEXITY>
272

> <PUBCHEM_CACTVS_HBOND_ACCEPTOR>
1

> <PUBCHEM_CACTVS_HBOND_DONOR>
2

> <PUBCHEM_CACTVS_ROTATABLE_BOND>
4

> <PUBCHEM_CACTVS_SUBSKEYS>
AAADccBzIAAEAAAAAAAAAAAAAAAAAWAAAAAwAAAAAAAAAFgB8AAAHgIQAAAADAvBnkQ+wPLJkACoAzV3VACCgCAxAiAI2aE4ZJhIIOLAkZHEIAhglgDIyAcQgMAOgAAAAAACAAAAAAAAAAQAAAAAAAAAAA==

> <PUBCHEM_IUPAC_OPENEYE_NAME>
(2S)-2-chloro-N-[2-(1H-indol-3-yl)ethyl]propanamide

> <PUBCHEM_IUPAC_CAS_NAME>
(2S)-2-chloro-N-[2-(1H-indol-3-yl)ethyl]propanamide

> <PUBCHEM_IUPAC_NAME>
(2S)-2-chloro-N-[2-(1H-indol-3-yl)ethyl]propanamide

> <PUBCHEM_IUPAC_SYSTEMATIC_NAME>
(2S)-2-chloranyl-N-[2-(1H-indol-3-yl)ethyl]propanamide

> <PUBCHEM_IUPAC_TRADITIONAL_NAME>
(2S)-2-chloro-N-[2-(1H-indol-3-yl)ethyl]propionamide

> <PUBCHEM_IUPAC_INCHI>
InChI=1S/C13H15ClN2O/c1-9(14)13(17)15-7-6-10-8-16-12-5-3-2-4-11(10)12/h2-5,8-9,16H,6-7H2,1H3,(H,15,17)/t9-/m0/s1

> <PUBCHEM_IUPAC_INCHIKEY>
FUGAXVJSGRGEBU-VIFPVBQESA-N

> <PUBCHEM_XLOGP3>
2.8

> <PUBCHEM_EXACT_MASS>
250.087291

> <PUBCHEM_MOLECULAR_FORMULA>
C13H15ClN2O

> <PUBCHEM_MOLECULAR_WEIGHT>
250.724

> <PUBCHEM_OPENEYE_CAN_SMILES>
CC(C(=O)NCCC1=CNC2=CC=CC=C21)Cl

> <PUBCHEM_OPENEYE_ISO_SMILES>
C[C@@H](C(=O)NCCC1=CNC2=CC=CC=C21)Cl

> <PUBCHEM_CACTVS_TPSA>
44.9

> <PUBCHEM_MONOISOTOPIC_WEIGHT>
250.087291

> <PUBCHEM_TOTAL_CHARGE>
0

> <PUBCHEM_HEAVY_ATOM_COUNT>
17

> <PUBCHEM_ATOM_DEF_STEREO_COUNT>
1

> <PUBCHEM_ATOM_UDEF_STEREO_COUNT>
0

> <PUBCHEM_BOND_DEF_STEREO_COUNT>
0

> <PUBCHEM_BOND_UDEF_STEREO_COUNT>
0

> <PUBCHEM_ISOTOPIC_ATOM_COUNT>
0

> <PUBCHEM_COMPONENT_COUNT>
1

> <PUBCHEM_CACTVS_TAUTO_COUNT>
2

> <PUBCHEM_COORDINATE_TYPE>
1
5
255

> <PUBCHEM_BONDANNOTATIONS>
16  1  6
11  13  8
12  14  8
13  14  8
3  10  8
3  9  8
5  10  8
5  7  8
7  11  8
7  9  8
9  12  8

$$$$
25823969
  -OEChem-05221314432D

 44 45  0     1  0  0  0  0  0999 V2000
    8.0622   -1.6970    0.0000 O   0  0  0  0  0  0  0  0  0  0  0  0
    7.1962   -0.1970    0.0000 N   0  0  0  0  0  0  0  0  0  0  0  0
   11.6065    1.1077    0.0000 N   0  0  0  0  0  0  0  0  0  0  0  0
    5.4641   -0.1970    0.0000 C   0  0  2  0  0  0  0  0  0  0  0  0
    4.5981   -0.6970    0.0000 C   0  0  0  0  0  0  0  0  0  0  0  0
    5.4641    0.8030    0.0000 C   0  0  0  0  0  0  0  0  0  0  0  0
    6.3301   -0.6970    0.0000 C   0  0  0  0  0  0  0  0  0  0  0  0
    3.7320   -0.1970    0.0000 C   0  0  0  0  0  0  0  0  0  0  0  0
    2.8660   -0.6970    0.0000 C   0  0  0  0  0  0  0  0  0  0  0  0
    4.5981    1.3030    0.0000 C   0  0  0  0  0  0  0  0  0  0  0  0
    2.0000   -0.1970    0.0000 C   0  0  0  0  0  0  0  0  0  0  0  0
    8.0622   -0.6970    0.0000 C   0  0  0  0  0  0  0  0  0  0  0  0
    8.9282   -0.1970    0.0000 C   0  0  0  0  0  0  0  0  0  0  0  0
   10.6603   -0.1970    0.0000 C   0  0  0  0  0  0  0  0  0  0  0  0
    9.7942   -0.6970    0.0000 C   0  0  0  0  0  0  0  0  0  0  0  0
   10.6603    0.8030    0.0000 C   0  0  0  0  0  0  0  0  0  0  0  0
    8.9282    0.8030    0.0000 C   0  0  0  0  0  0  0  0  0  0  0  0
    9.7942    1.3030    0.0000 C   0  0  0  0  0  0  0  0  0  0  0  0
   11.6065   -0.5018    0.0000 C   0  0  0  0  0  0  0  0  0  0  0  0
   12.1901    0.3030    0.0000 C   0  0  0  0  0  0  0  0  0  0  0  0
    5.4641   -0.8170    0.0000 H   0  0  0  0  0  0  0  0  0  0  0  0
    4.1996   -1.1720    0.0000 H   0  0  0  0  0  0  0  0  0  0  0  0
    4.9966   -1.1720    0.0000 H   0  0  0  0  0  0  0  0  0  0  0  0
    6.0747    0.6953    0.0000 H   0  0  0  0  0  0  0  0  0  0  0  0
    5.6762    1.3856    0.0000 H   0  0  0  0  0  0  0  0  0  0  0  0
    5.9316   -1.1720    0.0000 H   0  0  0  0  0  0  0  0  0  0  0  0
    6.7287   -1.1720    0.0000 H   0  0  0  0  0  0  0  0  0  0  0  0
    4.1306    0.2779    0.0000 H   0  0  0  0  0  0  0  0  0  0  0  0
    3.3335    0.2779    0.0000 H   0  0  0  0  0  0  0  0  0  0  0  0
    2.4675   -1.1720    0.0000 H   0  0  0  0  0  0  0  0  0  0  0  0
    3.2646   -1.1720    0.0000 H   0  0  0  0  0  0  0  0  0  0  0  0
    4.9081    1.8399    0.0000 H   0  0  0  0  0  0  0  0  0  0  0  0
    4.0611    1.6130    0.0000 H   0  0  0  0  0  0  0  0  0  0  0  0
    4.2881    0.7660    0.0000 H   0  0  0  0  0  0  0  0  0  0  0  0
    7.1962    0.4230    0.0000 H   0  0  0  0  0  0  0  0  0  0  0  0
    2.3100    0.3399    0.0000 H   0  0  0  0  0  0  0  0  0  0  0  0
    1.4631    0.1130    0.0000 H   0  0  0  0  0  0  0  0  0  0  0  0
    1.6900   -0.7340    0.0000 H   0  0  0  0  0  0  0  0  0  0  0  0
    9.7942   -1.3170    0.0000 H   0  0  0  0  0  0  0  0  0  0  0  0
    8.3913    1.1130    0.0000 H   0  0  0  0  0  0  0  0  0  0  0  0
    9.7942    1.9230    0.0000 H   0  0  0  0  0  0  0  0  0  0  0  0
   11.7991   -1.0911    0.0000 H   0  0  0  0  0  0  0  0  0  0  0  0
   11.7991    1.6970    0.0000 H   0  0  0  0  0  0  0  0  0  0  0  0
   12.8101    0.3030    0.0000 H   0  0  0  0  0  0  0  0  0  0  0  0
  1 12  2  0  0  0  0
  2  7  1  0  0  0  0
  2 12  1  0  0  0  0
  2 35  1  0  0  0  0
  3 16  1  0  0  0  0
  3 20  1  0  0  0  0
  3 43  1  0  0  0  0
  4  5  1  0  0  0  0
  4  6  1  0  0  0  0
  4  7  1  6  0  0  0
  4 21  1  0  0  0  0
  5  8  1  0  0  0  0
  5 22  1  0  0  0  0
  5 23  1  0  0  0  0
  6 10  1  0  0  0  0
  6 24  1  0  0  0  0
  6 25  1  0  0  0  0
  7 26  1  0  0  0  0
  7 27  1  0  0  0  0
  8  9  1  0  0  0  0
  8 28  1  0  0  0  0
  8 29  1  0  0  0  0
  9 11  1  0  0  0  0
  9 30  1  0  0  0  0
  9 31  1  0  0  0  0
 10 32  1  0  0  0  0
 10 33  1  0  0  0  0
 10 34  1  0  0  0  0
 11 36  1  0  0  0  0
 11 37  1  0  0  0  0
 11 38  1  0  0  0  0
 12 13  1  0  0  0  0
 13 15  2  0  0  0  0
 13 17  1  0  0  0  0
 14 15  1  0  0  0  0
 14 16  2  0  0  0  0
 14 19  1  0  0  0  0
 15 39  1  0  0  0  0
 16 18  1  0  0  0  0
 17 18  2  0  0  0  0
 17 40  1  0  0  0  0
 18 41  1  0  0  0  0
 19 20  2  0  0  0  0
 19 42  1  0  0  0  0
 20 44  1  0  0  0  0
M  END
> <PUBCHEM_COMPOUND_CID>
25823969

> <PUBCHEM_COMPOUND_CANONICALIZED>
1

> <PUBCHEM_CACTVS_COMPLEXITY>
305

> <PUBCHEM_CACTVS_HBOND_ACCEPTOR>
1

> <PUBCHEM_CACTVS_HBOND_DONOR>
2

> <PUBCHEM_CACTVS_ROTATABLE_BOND>
7

> <PUBCHEM_CACTVS_SUBSKEYS>
AAADceB7IAAAAAAAAAAAAAAAAAAAAWAAAAAwAAAAAAAAAFgB8AAAHgAQAAAADQjBngQ+wPLJkACoAzV3VACCgCA1AiAI2aE4ZNgIIPLAlZGEIQhglgDIyYcYicCeCAACAAACAAAQAAQAAAQAAAAAAAAAAA==

> <PUBCHEM_IUPAC_OPENEYE_NAME>
N-[(2S)-2-ethylhexyl]-1H-indole-5-carboxamide

> <PUBCHEM_IUPAC_CAS_NAME>
N-[(2S)-2-ethylhexyl]-1H-indole-5-carboxamide

> <PUBCHEM_IUPAC_NAME>
N-[(2S)-2-ethylhexyl]-1H-indole-5-carboxamide

> <PUBCHEM_IUPAC_SYSTEMATIC_NAME>
N-[(2S)-2-ethylhexyl]-1H-indole-5-carboxamide

> <PUBCHEM_IUPAC_TRADITIONAL_NAME>
N-[(2S)-2-ethylhexyl]-1H-indole-5-carboxamide

> <PUBCHEM_IUPAC_INCHI>
InChI=1S/C17H24N2O/c1-3-5-6-13(4-2)12-19-17(20)15-7-8-16-14(11-15)9-10-18-16/h7-11,13,18H,3-6,12H2,1-2H3,(H,19,20)/t13-/m0/s1

> <PUBCHEM_IUPAC_INCHIKEY>
POZRCCHFKPVJOR-ZDUSSCGKSA-N

> <PUBCHEM_XLOGP3>
4.4

> <PUBCHEM_EXACT_MASS>
272.188863

> <PUBCHEM_MOLECULAR_FORMULA>
C17H24N2O

> <PUBCHEM_MOLECULAR_WEIGHT>
272.38526

> <PUBCHEM_OPENEYE_CAN_SMILES>
CCCCC(CC)CNC(=O)C1=CC2=C(C=C1)NC=C2

> <PUBCHEM_OPENEYE_ISO_SMILES>
CCCC[C@H](CC)CNC(=O)C1=CC2=C(C=C1)NC=C2

> <PUBCHEM_CACTVS_TPSA>
44.9

> <PUBCHEM_MONOISOTOPIC_WEIGHT>
272.188863

> <PUBCHEM_TOTAL_CHARGE>
0

> <PUBCHEM_HEAVY_ATOM_COUNT>
20

> <PUBCHEM_ATOM_DEF_STEREO_COUNT>
1

> <PUBCHEM_ATOM_UDEF_STEREO_COUNT>
0

> <PUBCHEM_BOND_DEF_STEREO_COUNT>
0

> <PUBCHEM_BOND_UDEF_STEREO_COUNT>
0

> <PUBCHEM_ISOTOPIC_ATOM_COUNT>
0

> <PUBCHEM_COMPONENT_COUNT>
1

> <PUBCHEM_CACTVS_TAUTO_COUNT>
5

> <PUBCHEM_COORDINATE_TYPE>
1
5
255

> <PUBCHEM_BONDANNOTATIONS>
13  15  8
13  17  8
14  15  8
14  16  8
14  19  8
16  18  8
17  18  8
19  20  8
3  16  8
3  20  8
4  7  6

$$$$
