42208001
  -OEChem-12041212012D

 28 28  0     0  0  0  0  0  0999 V2000
    3.0000   -2.5600    0.0000 O   0  0  0  0  0  0  0  0  0  0  0  0
    3.0000    2.4400    0.0000 N   0  3  0  0  0  0  0  0  0  0  0  0
    3.0000    1.4400    0.0000 C   0  0  0  0  0  0  0  0  0  0  0  0
    3.0000    0.4400    0.0000 C   0  0  0  0  0  0  0  0  0  0  0  0
    4.0000    1.4400    0.0000 C   0  0  0  0  0  0  0  0  0  0  0  0
    2.0000    1.4400    0.0000 C   0  0  0  0  0  0  0  0  0  0  0  0
    2.1340   -0.0600    0.0000 C   0  0  0  0  0  0  0  0  0  0  0  0
    3.8660   -0.0600    0.0000 C   0  0  0  0  0  0  0  0  0  0  0  0
    2.1340   -1.0600    0.0000 C   0  0  0  0  0  0  0  0  0  0  0  0
    3.8660   -1.0600    0.0000 C   0  0  0  0  0  0  0  0  0  0  0  0
    3.0000   -1.5600    0.0000 C   0  0  0  0  0  0  0  0  0  0  0  0
    2.1340   -3.0600    0.0000 C   0  0  0  0  0  0  0  0  0  0  0  0
    3.0000    3.0600    0.0000 H   0  0  0  0  0  0  0  0  0  0  0  0
    3.6200    2.4400    0.0000 H   0  0  0  0  0  0  0  0  0  0  0  0
    2.3800    2.4400    0.0000 H   0  0  0  0  0  0  0  0  0  0  0  0
    2.0000    2.0600    0.0000 H   0  0  0  0  0  0  0  0  0  0  0  0
    1.3800    1.4400    0.0000 H   0  0  0  0  0  0  0  0  0  0  0  0
    2.0000    0.8200    0.0000 H   0  0  0  0  0  0  0  0  0  0  0  0
    4.0000    0.8200    0.0000 H   0  0  0  0  0  0  0  0  0  0  0  0
    4.6200    1.4400    0.0000 H   0  0  0  0  0  0  0  0  0  0  0  0
    4.0000    2.0600    0.0000 H   0  0  0  0  0  0  0  0  0  0  0  0
    1.5970    0.2500    0.0000 H   0  0  0  0  0  0  0  0  0  0  0  0
    4.4030    0.2500    0.0000 H   0  0  0  0  0  0  0  0  0  0  0  0
    1.5970   -1.3700    0.0000 H   0  0  0  0  0  0  0  0  0  0  0  0
    4.4030   -1.3700    0.0000 H   0  0  0  0  0  0  0  0  0  0  0  0
    1.8240   -2.5231    0.0000 H   0  0  0  0  0  0  0  0  0  0  0  0
    1.5970   -3.3700    0.0000 H   0  0  0  0  0  0  0  0  0  0  0  0
    2.4440   -3.5969    0.0000 H   0  0  0  0  0  0  0  0  0  0  0  0
  1 11  1  0  0  0  0
  1 12  1  0  0  0  0
  2  3  1  0  0  0  0
  2 13  1  0  0  0  0
  2 14  1  0  0  0  0
  2 15  1  0  0  0  0
  3  4  1  0  0  0  0
  3  5  1  0  0  0  0
  3  6  1  0  0  0  0
  4  7  2  0  0  0  0
  4  8  1  0  0  0  0
  5 19  1  0  0  0  0
  5 20  1  0  0  0  0
  5 21  1  0  0  0  0
  6 16  1  0  0  0  0
  6 17  1  0  0  0  0
  6 18  1  0  0  0  0
  7  9  1  0  0  0  0
  7 22  1  0  0  0  0
  8 10  2  0  0  0  0
  8 23  1  0  0  0  0
  9 11  2  0  0  0  0
  9 24  1  0  0  0  0
 10 11  1  0  0  0  0
 10 25  1  0  0  0  0
 12 26  1  0  0  0  0
 12 27  1  0  0  0  0
 12 28  1  0  0  0  0
M  CHG  1   2   1
M  END
> <PUBCHEM_COMPOUND_CID>
42208001

> <PUBCHEM_COMPOUND_CANONICALIZED>
1

> <PUBCHEM_CACTVS_COMPLEXITY>
137

> <PUBCHEM_CACTVS_HBOND_ACCEPTOR>
1

> <PUBCHEM_CACTVS_HBOND_DONOR>
1

> <PUBCHEM_CACTVS_ROTATABLE_BOND>
2

> <PUBCHEM_CACTVS_SUBSKEYS>
AAADceByIAAAAAAAAAAAAAAAAAAAAAAAAAAwAAAAAAAAAAABAAAAHgAQAAAADIyBmAIyBoBABACAAiBCAACCCAAgIAAIiAAGDIgMJiKEsRuAMCBk0BEIqAeQ0NEOoAAAAAAAAABAAAAAAAAAAAAAAAAAAA==

> <PUBCHEM_IUPAC_OPENEYE_NAME>
[1-(4-methoxyphenyl)-1-methyl-ethyl]ammonium

> <PUBCHEM_IUPAC_CAS_NAME>
2-(4-methoxyphenyl)propan-2-ylammonium

> <PUBCHEM_IUPAC_NAME>
2-(4-methoxyphenyl)propan-2-ylazanium

> <PUBCHEM_IUPAC_SYSTEMATIC_NAME>
2-(4-methoxyphenyl)propan-2-ylazanium

> <PUBCHEM_IUPAC_TRADITIONAL_NAME>
[1-(4-methoxyphenyl)-1-methyl-ethyl]ammonium

> <PUBCHEM_IUPAC_INCHI>
InChI=1S/C10H15NO/c1-10(2,11)8-4-6-9(12-3)7-5-8/h4-7H,11H2,1-3H3/p+1

> <PUBCHEM_IUPAC_INCHIKEY>
RITIBMKMOLMSPL-UHFFFAOYSA-O

> <PUBCHEM_XLOGP3>
1.7

> <PUBCHEM_EXACT_MASS>
166.123189

> <PUBCHEM_MOLECULAR_FORMULA>
C10H16NO+

> <PUBCHEM_MOLECULAR_WEIGHT>
166.24014

> <PUBCHEM_OPENEYE_CAN_SMILES>
CC(C)(C1=CC=C(C=C1)OC)[NH3+]

> <PUBCHEM_OPENEYE_ISO_SMILES>
CC(C)(C1=CC=C(C=C1)OC)[NH3+]

> <PUBCHEM_CACTVS_TPSA>
36.9

> <PUBCHEM_MONOISOTOPIC_WEIGHT>
166.123189

> <PUBCHEM_TOTAL_CHARGE>
1

> <PUBCHEM_HEAVY_ATOM_COUNT>
12

> <PUBCHEM_ATOM_DEF_STEREO_COUNT>
0

> <PUBCHEM_ATOM_UDEF_STEREO_COUNT>
0

> <PUBCHEM_BOND_DEF_STEREO_COUNT>
0

> <PUBCHEM_BOND_UDEF_STEREO_COUNT>
0

> <PUBCHEM_ISOTOPIC_ATOM_COUNT>
0

> <PUBCHEM_COMPONENT_COUNT>
1

> <PUBCHEM_CACTVS_TAUTO_COUNT>
1

> <PUBCHEM_COORDINATE_TYPE>
1
5
255

> <PUBCHEM_BONDANNOTATIONS>
10  11  8
4  7  8
4  8  8
7  9  8
8  10  8
9  11  8

$$$$
42221572
  -OEChem-12041212022D

 28 28  0     1  0  0  0  0  0999 V2000
    3.7320    0.2315    0.0000 O   0  0  0  0  0  0  0  0  0  0  0  0
    5.4641    2.2315    0.0000 N   0  3  0  0  0  0  0  0  0  0  0  0
    4.5981    1.7315    0.0000 C   0  0  1  0  0  0  0  0  0  0  0  0
    4.5981    0.7315    0.0000 C   0  0  0  0  0  0  0  0  0  0  0  0
    3.7320    2.2315    0.0000 C   0  0  0  0  0  0  0  0  0  0  0  0
    3.7320   -0.7685    0.0000 C   0  0  0  0  0  0  0  0  0  0  0  0
    2.8660   -1.2685    0.0000 C   0  0  0  0  0  0  0  0  0  0  0  0
    4.5981   -1.2685    0.0000 C   0  0  0  0  0  0  0  0  0  0  0  0
    2.8660   -2.2685    0.0000 C   0  0  0  0  0  0  0  0  0  0  0  0
    2.0000   -0.7685    0.0000 C   0  0  0  0  0  0  0  0  0  0  0  0
    4.5981   -2.2685    0.0000 C   0  0  0  0  0  0  0  0  0  0  0  0
    3.7320   -2.7685    0.0000 C   0  0  0  0  0  0  0  0  0  0  0  0
    4.5981    2.3515    0.0000 H   0  0  0  0  0  0  0  0  0  0  0  0
    4.8101    0.1489    0.0000 H   0  0  0  0  0  0  0  0  0  0  0  0
    5.2087    0.8392    0.0000 H   0  0  0  0  0  0  0  0  0  0  0  0
    6.0010    2.5415    0.0000 H   0  0  0  0  0  0  0  0  0  0  0  0
    5.1541    2.7685    0.0000 H   0  0  0  0  0  0  0  0  0  0  0  0
    5.7741    1.6946    0.0000 H   0  0  0  0  0  0  0  0  0  0  0  0
    4.0420    2.7685    0.0000 H   0  0  0  0  0  0  0  0  0  0  0  0
    3.1951    2.5415    0.0000 H   0  0  0  0  0  0  0  0  0  0  0  0
    3.4220    1.6946    0.0000 H   0  0  0  0  0  0  0  0  0  0  0  0
    5.1350   -0.9585    0.0000 H   0  0  0  0  0  0  0  0  0  0  0  0
    2.3291   -2.5785    0.0000 H   0  0  0  0  0  0  0  0  0  0  0  0
    2.3100   -0.2315    0.0000 H   0  0  0  0  0  0  0  0  0  0  0  0
    1.4631   -0.4585    0.0000 H   0  0  0  0  0  0  0  0  0  0  0  0
    1.6900   -1.3054    0.0000 H   0  0  0  0  0  0  0  0  0  0  0  0
    5.1350   -2.5785    0.0000 H   0  0  0  0  0  0  0  0  0  0  0  0
    3.7320   -3.3885    0.0000 H   0  0  0  0  0  0  0  0  0  0  0  0
  1  4  1  0  0  0  0
  1  6  1  0  0  0  0
  3  2  1  1  0  0  0
  2 16  1  0  0  0  0
  2 17  1  0  0  0  0
  2 18  1  0  0  0  0
  3  4  1  0  0  0  0
  3  5  1  0  0  0  0
  3 13  1  0  0  0  0
  4 14  1  0  0  0  0
  4 15  1  0  0  0  0
  5 19  1  0  0  0  0
  5 20  1  0  0  0  0
  5 21  1  0  0  0  0
  6  7  1  0  0  0  0
  6  8  2  0  0  0  0
  7  9  2  0  0  0  0
  7 10  1  0  0  0  0
  8 11  1  0  0  0  0
  8 22  1  0  0  0  0
  9 12  1  0  0  0  0
  9 23  1  0  0  0  0
 10 24  1  0  0  0  0
 10 25  1  0  0  0  0
 10 26  1  0  0  0  0
 11 12  2  0  0  0  0
 11 27  1  0  0  0  0
 12 28  1  0  0  0  0
M  CHG  1   2   1
M  END
> <PUBCHEM_COMPOUND_CID>
42221572

> <PUBCHEM_COMPOUND_CANONICALIZED>
1

> <PUBCHEM_CACTVS_COMPLEXITY>
127

> <PUBCHEM_CACTVS_HBOND_ACCEPTOR>
1

> <PUBCHEM_CACTVS_HBOND_DONOR>
1

> <PUBCHEM_CACTVS_ROTATABLE_BOND>
3

> <PUBCHEM_CACTVS_SUBSKEYS>
AAADceByIAAAAAAAAAAAAAAAAAAAAAAAAAAwAAAAAAAAAAABAAAAHgAQAAAADCzhmAYyBoBABACAAiBCAAACCAAgIAAIiIAGCIgOJiKEMRqDOCCk0BEIqAeAwCAOAAAAAAAIAAAAAAAAABAAAAAAAAAAAA==

> <PUBCHEM_IUPAC_OPENEYE_NAME>
[(1R)-1-methyl-2-(2-methylphenoxy)ethyl]ammonium

> <PUBCHEM_IUPAC_CAS_NAME>
[(2R)-1-(2-methylphenoxy)propan-2-yl]ammonium

> <PUBCHEM_IUPAC_NAME>
[(2R)-1-(2-methylphenoxy)propan-2-yl]azanium

> <PUBCHEM_IUPAC_SYSTEMATIC_NAME>
[(2R)-1-(2-methylphenoxy)propan-2-yl]azanium

> <PUBCHEM_IUPAC_TRADITIONAL_NAME>
[(1R)-1-methyl-2-(2-methylphenoxy)ethyl]ammonium

> <PUBCHEM_IUPAC_INCHI>
InChI=1S/C10H15NO/c1-8-5-3-4-6-10(8)12-7-9(2)11/h3-6,9H,7,11H2,1-2H3/p+1/t9-/m1/s1

> <PUBCHEM_IUPAC_INCHIKEY>
AUWZEXMVEMHCAL-SECBINFHSA-O

> <PUBCHEM_XLOGP3>
2.2

> <PUBCHEM_EXACT_MASS>
166.123189

> <PUBCHEM_MOLECULAR_FORMULA>
C10H16NO+

> <PUBCHEM_MOLECULAR_WEIGHT>
166.24014

> <PUBCHEM_OPENEYE_CAN_SMILES>
CC1=CC=CC=C1OCC(C)[NH3+]

> <PUBCHEM_OPENEYE_ISO_SMILES>
CC1=CC=CC=C1OC[C@@H](C)[NH3+]

> <PUBCHEM_CACTVS_TPSA>
36.9

> <PUBCHEM_MONOISOTOPIC_WEIGHT>
166.123189

> <PUBCHEM_TOTAL_CHARGE>
1

> <PUBCHEM_HEAVY_ATOM_COUNT>
12

> <PUBCHEM_ATOM_DEF_STEREO_COUNT>
1

> <PUBCHEM_ATOM_UDEF_STEREO_COUNT>
0

> <PUBCHEM_BOND_DEF_STEREO_COUNT>
0

> <PUBCHEM_BOND_UDEF_STEREO_COUNT>
0

> <PUBCHEM_ISOTOPIC_ATOM_COUNT>
0

> <PUBCHEM_COMPONENT_COUNT>
1

> <PUBCHEM_CACTVS_TAUTO_COUNT>
1

> <PUBCHEM_COORDINATE_TYPE>
1
5
255

> <PUBCHEM_BONDANNOTATIONS>
11  12  8
3  2  5
6  7  8
6  8  8
7  9  8
8  11  8
9  12  8

$$$$
42221574
  -OEChem-12041212022D

 28 28  0     1  0  0  0  0  0999 V2000
    3.7320    0.2315    0.0000 O   0  0  0  0  0  0  0  0  0  0  0  0
    5.4641    2.2315    0.0000 N   0  3  0  0  0  0  0  0  0  0  0  0
    4.5981    1.7315    0.0000 C   0  0  2  0  0  0  0  0  0  0  0  0
    4.5981    0.7315    0.0000 C   0  0  0  0  0  0  0  0  0  0  0  0
    3.7320    2.2315    0.0000 C   0  0  0  0  0  0  0  0  0  0  0  0
    3.7320   -0.7685    0.0000 C   0  0  0  0  0  0  0  0  0  0  0  0
    2.8660   -1.2685    0.0000 C   0  0  0  0  0  0  0  0  0  0  0  0
    4.5981   -1.2685    0.0000 C   0  0  0  0  0  0  0  0  0  0  0  0
    2.8660   -2.2685    0.0000 C   0  0  0  0  0  0  0  0  0  0  0  0
    2.0000   -0.7685    0.0000 C   0  0  0  0  0  0  0  0  0  0  0  0
    4.5981   -2.2685    0.0000 C   0  0  0  0  0  0  0  0  0  0  0  0
    3.7320   -2.7685    0.0000 C   0  0  0  0  0  0  0  0  0  0  0  0
    4.5981    2.3515    0.0000 H   0  0  0  0  0  0  0  0  0  0  0  0
    4.8101    0.1489    0.0000 H   0  0  0  0  0  0  0  0  0  0  0  0
    5.2087    0.8392    0.0000 H   0  0  0  0  0  0  0  0  0  0  0  0
    6.0010    2.5415    0.0000 H   0  0  0  0  0  0  0  0  0  0  0  0
    5.1541    2.7685    0.0000 H   0  0  0  0  0  0  0  0  0  0  0  0
    5.7741    1.6946    0.0000 H   0  0  0  0  0  0  0  0  0  0  0  0
    4.0420    2.7685    0.0000 H   0  0  0  0  0  0  0  0  0  0  0  0
    3.1951    2.5415    0.0000 H   0  0  0  0  0  0  0  0  0  0  0  0
    3.4220    1.6946    0.0000 H   0  0  0  0  0  0  0  0  0  0  0  0
    5.1350   -0.9585    0.0000 H   0  0  0  0  0  0  0  0  0  0  0  0
    2.3291   -2.5785    0.0000 H   0  0  0  0  0  0  0  0  0  0  0  0
    2.3100   -0.2315    0.0000 H   0  0  0  0  0  0  0  0  0  0  0  0
    1.4631   -0.4585    0.0000 H   0  0  0  0  0  0  0  0  0  0  0  0
    1.6900   -1.3054    0.0000 H   0  0  0  0  0  0  0  0  0  0  0  0
    5.1350   -2.5785    0.0000 H   0  0  0  0  0  0  0  0  0  0  0  0
    3.7320   -3.3885    0.0000 H   0  0  0  0  0  0  0  0  0  0  0  0
  1  4  1  0  0  0  0
  1  6  1  0  0  0  0
  3  2  1  6  0  0  0
  2 16  1  0  0  0  0
  2 17  1  0  0  0  0
  2 18  1  0  0  0  0
  3  4  1  0  0  0  0
  3  5  1  0  0  0  0
  3 13  1  0  0  0  0
  4 14  1  0  0  0  0
  4 15  1  0  0  0  0
  5 19  1  0  0  0  0
  5 20  1  0  0  0  0
  5 21  1  0  0  0  0
  6  7  1  0  0  0  0
  6  8  2  0  0  0  0
  7  9  2  0  0  0  0
  7 10  1  0  0  0  0
  8 11  1  0  0  0  0
  8 22  1  0  0  0  0
  9 12  1  0  0  0  0
  9 23  1  0  0  0  0
 10 24  1  0  0  0  0
 10 25  1  0  0  0  0
 10 26  1  0  0  0  0
 11 12  2  0  0  0  0
 11 27  1  0  0  0  0
 12 28  1  0  0  0  0
M  CHG  1   2   1
M  END
> <PUBCHEM_COMPOUND_CID>
42221574

> <PUBCHEM_COMPOUND_CANONICALIZED>
1

> <PUBCHEM_CACTVS_COMPLEXITY>
127

> <PUBCHEM_CACTVS_HBOND_ACCEPTOR>
1

> <PUBCHEM_CACTVS_HBOND_DONOR>
1

> <PUBCHEM_CACTVS_ROTATABLE_BOND>
3

> <PUBCHEM_CACTVS_SUBSKEYS>
AAADceByIAAAAAAAAAAAAAAAAAAAAAAAAAAwAAAAAAAAAAABAAAAHgAQAAAADCzhmAYyBoBABACAAiBCAAACCAAgIAAIiIAGCIgOJiKEMRqDOCCk0BEIqAeAwCAOAAAAAAAIAAAAAAAAABAAAAAAAAAAAA==

> <PUBCHEM_IUPAC_OPENEYE_NAME>
[(1S)-1-methyl-2-(2-methylphenoxy)ethyl]ammonium

> <PUBCHEM_IUPAC_CAS_NAME>
[(2S)-1-(2-methylphenoxy)propan-2-yl]ammonium

> <PUBCHEM_IUPAC_NAME>
[(2S)-1-(2-methylphenoxy)propan-2-yl]azanium

> <PUBCHEM_IUPAC_SYSTEMATIC_NAME>
[(2S)-1-(2-methylphenoxy)propan-2-yl]azanium

> <PUBCHEM_IUPAC_TRADITIONAL_NAME>
[(1S)-1-methyl-2-(2-methylphenoxy)ethyl]ammonium

> <PUBCHEM_IUPAC_INCHI>
InChI=1S/C10H15NO/c1-8-5-3-4-6-10(8)12-7-9(2)11/h3-6,9H,7,11H2,1-2H3/p+1/t9-/m0/s1

> <PUBCHEM_IUPAC_INCHIKEY>
AUWZEXMVEMHCAL-VIFPVBQESA-O

> <PUBCHEM_XLOGP3>
2.2

> <PUBCHEM_EXACT_MASS>
166.123189

> <PUBCHEM_MOLECULAR_FORMULA>
C10H16NO+

> <PUBCHEM_MOLECULAR_WEIGHT>
166.24014

> <PUBCHEM_OPENEYE_CAN_SMILES>
CC1=CC=CC=C1OCC(C)[NH3+]

> <PUBCHEM_OPENEYE_ISO_SMILES>
CC1=CC=CC=C1OC[C@H](C)[NH3+]

> <PUBCHEM_CACTVS_TPSA>
36.9

> <PUBCHEM_MONOISOTOPIC_WEIGHT>
166.123189

> <PUBCHEM_TOTAL_CHARGE>
1

> <PUBCHEM_HEAVY_ATOM_COUNT>
12

> <PUBCHEM_ATOM_DEF_STEREO_COUNT>
1

> <PUBCHEM_ATOM_UDEF_STEREO_COUNT>
0

> <PUBCHEM_BOND_DEF_STEREO_COUNT>
0

> <PUBCHEM_BOND_UDEF_STEREO_COUNT>
0

> <PUBCHEM_ISOTOPIC_ATOM_COUNT>
0

> <PUBCHEM_COMPONENT_COUNT>
1

> <PUBCHEM_CACTVS_TAUTO_COUNT>
1

> <PUBCHEM_COORDINATE_TYPE>
1
5
255

> <PUBCHEM_BONDANNOTATIONS>
11  12  8
3  2  6
6  7  8
6  8  8
7  9  8
8  11  8
9  12  8

$$$$
42221576
  -OEChem-12041212022D

 28 28  0     1  0  0  0  0  0999 V2000
    3.7320    0.2315    0.0000 O   0  0  0  0  0  0  0  0  0  0  0  0
    5.4641    2.2315    0.0000 N   0  3  0  0  0  0  0  0  0  0  0  0
    4.5981    1.7315    0.0000 C   0  0  1  0  0  0  0  0  0  0  0  0
    4.5981    0.7315    0.0000 C   0  0  0  0  0  0  0  0  0  0  0  0
    3.7320    2.2315    0.0000 C   0  0  0  0  0  0  0  0  0  0  0  0
    3.7320   -0.7685    0.0000 C   0  0  0  0  0  0  0  0  0  0  0  0
    2.8660   -1.2685    0.0000 C   0  0  0  0  0  0  0  0  0  0  0  0
    2.8660   -2.2685    0.0000 C   0  0  0  0  0  0  0  0  0  0  0  0
    4.5981   -1.2685    0.0000 C   0  0  0  0  0  0  0  0  0  0  0  0
    3.7320   -2.7685    0.0000 C   0  0  0  0  0  0  0  0  0  0  0  0
    4.5981   -2.2685    0.0000 C   0  0  0  0  0  0  0  0  0  0  0  0
    2.0000   -2.7685    0.0000 C   0  0  0  0  0  0  0  0  0  0  0  0
    4.5981    2.3515    0.0000 H   0  0  0  0  0  0  0  0  0  0  0  0
    4.8101    0.1489    0.0000 H   0  0  0  0  0  0  0  0  0  0  0  0
    5.2087    0.8392    0.0000 H   0  0  0  0  0  0  0  0  0  0  0  0
    6.0010    2.5415    0.0000 H   0  0  0  0  0  0  0  0  0  0  0  0
    5.1541    2.7685    0.0000 H   0  0  0  0  0  0  0  0  0  0  0  0
    5.7741    1.6946    0.0000 H   0  0  0  0  0  0  0  0  0  0  0  0
    4.0420    2.7685    0.0000 H   0  0  0  0  0  0  0  0  0  0  0  0
    3.1951    2.5415    0.0000 H   0  0  0  0  0  0  0  0  0  0  0  0
    3.4220    1.6946    0.0000 H   0  0  0  0  0  0  0  0  0  0  0  0
    2.3291   -0.9585    0.0000 H   0  0  0  0  0  0  0  0  0  0  0  0
    5.1350   -0.9585    0.0000 H   0  0  0  0  0  0  0  0  0  0  0  0
    3.7320   -3.3885    0.0000 H   0  0  0  0  0  0  0  0  0  0  0  0
    5.1350   -2.5785    0.0000 H   0  0  0  0  0  0  0  0  0  0  0  0
    1.6900   -2.2315    0.0000 H   0  0  0  0  0  0  0  0  0  0  0  0
    1.4631   -3.0785    0.0000 H   0  0  0  0  0  0  0  0  0  0  0  0
    2.3100   -3.3054    0.0000 H   0  0  0  0  0  0  0  0  0  0  0  0
  1  4  1  0  0  0  0
  1  6  1  0  0  0  0
  3  2  1  1  0  0  0
  2 16  1  0  0  0  0
  2 17  1  0  0  0  0
  2 18  1  0  0  0  0
  3  4  1  0  0  0  0
  3  5  1  0  0  0  0
  3 13  1  0  0  0  0
  4 14  1  0  0  0  0
  4 15  1  0  0  0  0
  5 19  1  0  0  0  0
  5 20  1  0  0  0  0
  5 21  1  0  0  0  0
  6  7  1  0  0  0  0
  6  9  2  0  0  0  0
  7  8  2  0  0  0  0
  7 22  1  0  0  0  0
  8 10  1  0  0  0  0
  8 12  1  0  0  0  0
  9 11  1  0  0  0  0
  9 23  1  0  0  0  0
 10 11  2  0  0  0  0
 10 24  1  0  0  0  0
 11 25  1  0  0  0  0
 12 26  1  0  0  0  0
 12 27  1  0  0  0  0
 12 28  1  0  0  0  0
M  CHG  1   2   1
M  END
> <PUBCHEM_COMPOUND_CID>
42221576

> <PUBCHEM_COMPOUND_CANONICALIZED>
1

> <PUBCHEM_CACTVS_COMPLEXITY>
127

> <PUBCHEM_CACTVS_HBOND_ACCEPTOR>
1

> <PUBCHEM_CACTVS_HBOND_DONOR>
1

> <PUBCHEM_CACTVS_ROTATABLE_BOND>
3

> <PUBCHEM_CACTVS_SUBSKEYS>
AAADceByIAAAAAAAAAAAAAAAAAAAAAAAAAAwAAAAAAAAAAABAAAAHgAQAAAADCzhmAYyBoBABACAAiBCAAACCAAgIAAIiIAGCIgOJiKEMRqDOCCk0BEIqAeAwBAOAAABAAAAAAAAAAIAAAAAAAAAAAAAAA==

> <PUBCHEM_IUPAC_OPENEYE_NAME>
[(1R)-1-methyl-2-(3-methylphenoxy)ethyl]ammonium

> <PUBCHEM_IUPAC_CAS_NAME>
[(2R)-1-(3-methylphenoxy)propan-2-yl]ammonium

> <PUBCHEM_IUPAC_NAME>
[(2R)-1-(3-methylphenoxy)propan-2-yl]azanium

> <PUBCHEM_IUPAC_SYSTEMATIC_NAME>
[(2R)-1-(3-methylphenoxy)propan-2-yl]azanium

> <PUBCHEM_IUPAC_TRADITIONAL_NAME>
[(1R)-1-methyl-2-(3-methylphenoxy)ethyl]ammonium

> <PUBCHEM_IUPAC_INCHI>
InChI=1S/C10H15NO/c1-8-4-3-5-10(6-8)12-7-9(2)11/h3-6,9H,7,11H2,1-2H3/p+1/t9-/m1/s1

> <PUBCHEM_IUPAC_INCHIKEY>
UKWBVFOYWVWPNE-SECBINFHSA-O

> <PUBCHEM_XLOGP3>
2.2

> <PUBCHEM_EXACT_MASS>
166.123189

> <PUBCHEM_MOLECULAR_FORMULA>
C10H16NO+

> <PUBCHEM_MOLECULAR_WEIGHT>
166.24014

> <PUBCHEM_OPENEYE_CAN_SMILES>
CC1=CC(=CC=C1)OCC(C)[NH3+]

> <PUBCHEM_OPENEYE_ISO_SMILES>
CC1=CC(=CC=C1)OC[C@@H](C)[NH3+]

> <PUBCHEM_CACTVS_TPSA>
36.9

> <PUBCHEM_MONOISOTOPIC_WEIGHT>
166.123189

> <PUBCHEM_TOTAL_CHARGE>
1

> <PUBCHEM_HEAVY_ATOM_COUNT>
12

> <PUBCHEM_ATOM_DEF_STEREO_COUNT>
1

> <PUBCHEM_ATOM_UDEF_STEREO_COUNT>
0

> <PUBCHEM_BOND_DEF_STEREO_COUNT>
0

> <PUBCHEM_BOND_UDEF_STEREO_COUNT>
0

> <PUBCHEM_ISOTOPIC_ATOM_COUNT>
0

> <PUBCHEM_COMPONENT_COUNT>
1

> <PUBCHEM_CACTVS_TAUTO_COUNT>
1

> <PUBCHEM_COORDINATE_TYPE>
1
5
255

> <PUBCHEM_BONDANNOTATIONS>
10  11  8
3  2  5
6  7  8
6  9  8
7  8  8
8  10  8
9  11  8

$$$$
42221578
  -OEChem-12041212022D

 28 28  0     1  0  0  0  0  0999 V2000
    3.7320    0.2315    0.0000 O   0  0  0  0  0  0  0  0  0  0  0  0
    5.4641    2.2315    0.0000 N   0  3  0  0  0  0  0  0  0  0  0  0
    4.5981    1.7315    0.0000 C   0  0  2  0  0  0  0  0  0  0  0  0
    4.5981    0.7315    0.0000 C   0  0  0  0  0  0  0  0  0  0  0  0
    3.7320    2.2315    0.0000 C   0  0  0  0  0  0  0  0  0  0  0  0
    3.7320   -0.7685    0.0000 C   0  0  0  0  0  0  0  0  0  0  0  0
    2.8660   -1.2685    0.0000 C   0  0  0  0  0  0  0  0  0  0  0  0
    2.8660   -2.2685    0.0000 C   0  0  0  0  0  0  0  0  0  0  0  0
    4.5981   -1.2685    0.0000 C   0  0  0  0  0  0  0  0  0  0  0  0
    3.7320   -2.7685    0.0000 C   0  0  0  0  0  0  0  0  0  0  0  0
    4.5981   -2.2685    0.0000 C   0  0  0  0  0  0  0  0  0  0  0  0
    2.0000   -2.7685    0.0000 C   0  0  0  0  0  0  0  0  0  0  0  0
    4.5981    2.3515    0.0000 H   0  0  0  0  0  0  0  0  0  0  0  0
    4.8101    0.1489    0.0000 H   0  0  0  0  0  0  0  0  0  0  0  0
    5.2087    0.8392    0.0000 H   0  0  0  0  0  0  0  0  0  0  0  0
    6.0010    2.5415    0.0000 H   0  0  0  0  0  0  0  0  0  0  0  0
    5.1541    2.7685    0.0000 H   0  0  0  0  0  0  0  0  0  0  0  0
    5.7741    1.6946    0.0000 H   0  0  0  0  0  0  0  0  0  0  0  0
    4.0420    2.7685    0.0000 H   0  0  0  0  0  0  0  0  0  0  0  0
    3.1951    2.5415    0.0000 H   0  0  0  0  0  0  0  0  0  0  0  0
    3.4220    1.6946    0.0000 H   0  0  0  0  0  0  0  0  0  0  0  0
    2.3291   -0.9585    0.0000 H   0  0  0  0  0  0  0  0  0  0  0  0
    5.1350   -0.9585    0.0000 H   0  0  0  0  0  0  0  0  0  0  0  0
    3.7320   -3.3885    0.0000 H   0  0  0  0  0  0  0  0  0  0  0  0
    5.1350   -2.5785    0.0000 H   0  0  0  0  0  0  0  0  0  0  0  0
    1.6900   -2.2315    0.0000 H   0  0  0  0  0  0  0  0  0  0  0  0
    1.4631   -3.0785    0.0000 H   0  0  0  0  0  0  0  0  0  0  0  0
    2.3100   -3.3054    0.0000 H   0  0  0  0  0  0  0  0  0  0  0  0
  1  4  1  0  0  0  0
  1  6  1  0  0  0  0
  3  2  1  6  0  0  0
  2 16  1  0  0  0  0
  2 17  1  0  0  0  0
  2 18  1  0  0  0  0
  3  4  1  0  0  0  0
  3  5  1  0  0  0  0
  3 13  1  0  0  0  0
  4 14  1  0  0  0  0
  4 15  1  0  0  0  0
  5 19  1  0  0  0  0
  5 20  1  0  0  0  0
  5 21  1  0  0  0  0
  6  7  1  0  0  0  0
  6  9  2  0  0  0  0
  7  8  2  0  0  0  0
  7 22  1  0  0  0  0
  8 10  1  0  0  0  0
  8 12  1  0  0  0  0
  9 11  1  0  0  0  0
  9 23  1  0  0  0  0
 10 11  2  0  0  0  0
 10 24  1  0  0  0  0
 11 25  1  0  0  0  0
 12 26  1  0  0  0  0
 12 27  1  0  0  0  0
 12 28  1  0  0  0  0
M  CHG  1   2   1
M  END
> <PUBCHEM_COMPOUND_CID>
42221578

> <PUBCHEM_COMPOUND_CANONICALIZED>
1

> <PUBCHEM_CACTVS_COMPLEXITY>
127

> <PUBCHEM_CACTVS_HBOND_ACCEPTOR>
1

> <PUBCHEM_CACTVS_HBOND_DONOR>
1

> <PUBCHEM_CACTVS_ROTATABLE_BOND>
3

> <PUBCHEM_CACTVS_SUBSKEYS>
AAADceByIAAAAAAAAAAAAAAAAAAAAAAAAAAwAAAAAAAAAAABAAAAHgAQAAAADCzhmAYyBoBABACAAiBCAAACCAAgIAAIiIAGCIgOJiKEMRqDOCCk0BEIqAeAwBAOAAABAAAAAAAAAAIAAAAAAAAAAAAAAA==

> <PUBCHEM_IUPAC_OPENEYE_NAME>
[(1S)-1-methyl-2-(3-methylphenoxy)ethyl]ammonium

> <PUBCHEM_IUPAC_CAS_NAME>
[(2S)-1-(3-methylphenoxy)propan-2-yl]ammonium

> <PUBCHEM_IUPAC_NAME>
[(2S)-1-(3-methylphenoxy)propan-2-yl]azanium

> <PUBCHEM_IUPAC_SYSTEMATIC_NAME>
[(2S)-1-(3-methylphenoxy)propan-2-yl]azanium

> <PUBCHEM_IUPAC_TRADITIONAL_NAME>
[(1S)-1-methyl-2-(3-methylphenoxy)ethyl]ammonium

> <PUBCHEM_IUPAC_INCHI>
InChI=1S/C10H15NO/c1-8-4-3-5-10(6-8)12-7-9(2)11/h3-6,9H,7,11H2,1-2H3/p+1/t9-/m0/s1

> <PUBCHEM_IUPAC_INCHIKEY>
UKWBVFOYWVWPNE-VIFPVBQESA-O

> <PUBCHEM_XLOGP3>
2.2

> <PUBCHEM_EXACT_MASS>
166.123189

> <PUBCHEM_MOLECULAR_FORMULA>
C10H16NO+

> <PUBCHEM_MOLECULAR_WEIGHT>
166.24014

> <PUBCHEM_OPENEYE_CAN_SMILES>
CC1=CC(=CC=C1)OCC(C)[NH3+]

> <PUBCHEM_OPENEYE_ISO_SMILES>
CC1=CC(=CC=C1)OC[C@H](C)[NH3+]

> <PUBCHEM_CACTVS_TPSA>
36.9

> <PUBCHEM_MONOISOTOPIC_WEIGHT>
166.123189

> <PUBCHEM_TOTAL_CHARGE>
1

> <PUBCHEM_HEAVY_ATOM_COUNT>
12

> <PUBCHEM_ATOM_DEF_STEREO_COUNT>
1

> <PUBCHEM_ATOM_UDEF_STEREO_COUNT>
0

> <PUBCHEM_BOND_DEF_STEREO_COUNT>
0

> <PUBCHEM_BOND_UDEF_STEREO_COUNT>
0

> <PUBCHEM_ISOTOPIC_ATOM_COUNT>
0

> <PUBCHEM_COMPONENT_COUNT>
1

> <PUBCHEM_CACTVS_TAUTO_COUNT>
1

> <PUBCHEM_COORDINATE_TYPE>
1
5
255

> <PUBCHEM_BONDANNOTATIONS>
10  11  8
3  2  6
6  7  8
6  9  8
7  8  8
8  10  8
9  11  8

$$$$
42222613
  -OEChem-12041212022D

 36 37  0     0  0  0  0  0  0999 V2000
    6.1200   -0.6340    0.0000 N   0  3  0  0  0  0  0  0  0  0  0  0
    2.6200    0.2321    0.0000 N   0  0  0  0  0  0  0  0  0  0  0  0
    6.1200    1.3660    0.0000 C   0  0  0  0  0  0  0  0  0  0  0  0
    5.2540   -0.1340    0.0000 C   0  0  0  0  0  0  0  0  0  0  0  0
    6.9860   -0.1340    0.0000 C   0  0  0  0  0  0  0  0  0  0  0  0
    5.2540    0.8660    0.0000 C   0  0  0  0  0  0  0  0  0  0  0  0
    6.9860    0.8660    0.0000 C   0  0  0  0  0  0  0  0  0  0  0  0
    5.6200   -1.5000    0.0000 C   0  0  0  0  0  0  0  0  0  0  0  0
    6.1200    2.3660    0.0000 C   0  0  0  0  0  0  0  0  0  0  0  0
    4.6200   -1.5000    0.0000 C   0  0  0  0  0  0  0  0  0  0  0  0
    4.1200   -0.6340    0.0000 C   0  0  0  0  0  0  0  0  0  0  0  0
    4.1200   -2.3660    0.0000 C   0  0  0  0  0  0  0  0  0  0  0  0
    3.1200   -0.6340    0.0000 C   0  0  0  0  0  0  0  0  0  0  0  0
    3.1200   -2.3660    0.0000 C   0  0  0  0  0  0  0  0  0  0  0  0
    2.6200   -1.5000    0.0000 C   0  0  0  0  0  0  0  0  0  0  0  0
    6.4300   -1.1709    0.0000 H   0  0  0  0  0  0  0  0  0  0  0  0
    6.6569    1.6760    0.0000 H   0  0  0  0  0  0  0  0  0  0  0  0
    4.6434   -0.0263    0.0000 H   0  0  0  0  0  0  0  0  0  0  0  0
    5.0419   -0.7166    0.0000 H   0  0  0  0  0  0  0  0  0  0  0  0
    7.1981   -0.7166    0.0000 H   0  0  0  0  0  0  0  0  0  0  0  0
    7.5966   -0.0263    0.0000 H   0  0  0  0  0  0  0  0  0  0  0  0
    5.0419    1.4486    0.0000 H   0  0  0  0  0  0  0  0  0  0  0  0
    4.6434    0.7584    0.0000 H   0  0  0  0  0  0  0  0  0  0  0  0
    7.5966    0.7584    0.0000 H   0  0  0  0  0  0  0  0  0  0  0  0
    7.1981    1.4486    0.0000 H   0  0  0  0  0  0  0  0  0  0  0  0
    5.5123   -2.1106    0.0000 H   0  0  0  0  0  0  0  0  0  0  0  0
    6.2026   -1.7120    0.0000 H   0  0  0  0  0  0  0  0  0  0  0  0
    6.7400    2.3660    0.0000 H   0  0  0  0  0  0  0  0  0  0  0  0
    6.1200    2.9860    0.0000 H   0  0  0  0  0  0  0  0  0  0  0  0
    5.5000    2.3660    0.0000 H   0  0  0  0  0  0  0  0  0  0  0  0
    4.4300   -0.0970    0.0000 H   0  0  0  0  0  0  0  0  0  0  0  0
    4.4300   -2.9030    0.0000 H   0  0  0  0  0  0  0  0  0  0  0  0
    2.8100   -2.9030    0.0000 H   0  0  0  0  0  0  0  0  0  0  0  0
    2.0000   -1.5000    0.0000 H   0  0  0  0  0  0  0  0  0  0  0  0
    2.0000    0.2321    0.0000 H   0  0  0  0  0  0  0  0  0  0  0  0
    2.9300    0.7690    0.0000 H   0  0  0  0  0  0  0  0  0  0  0  0
  1  4  1  0  0  0  0
  1  5  1  0  0  0  0
  1  8  1  0  0  0  0
  1 16  1  0  0  0  0
  2 13  1  0  0  0  0
  2 35  1  0  0  0  0
  2 36  1  0  0  0  0
  3  6  1  0  0  0  0
  3  7  1  0  0  0  0
  3  9  1  0  0  0  0
  3 17  1  0  0  0  0
  4  6  1  0  0  0  0
  4 18  1  0  0  0  0
  4 19  1  0  0  0  0
  5  7  1  0  0  0  0
  5 20  1  0  0  0  0
  5 21  1  0  0  0  0
  6 22  1  0  0  0  0
  6 23  1  0  0  0  0
  7 24  1  0  0  0  0
  7 25  1  0  0  0  0
  8 10  1  0  0  0  0
  8 26  1  0  0  0  0
  8 27  1  0  0  0  0
  9 28  1  0  0  0  0
  9 29  1  0  0  0  0
  9 30  1  0  0  0  0
 10 11  2  0  0  0  0
 10 12  1  0  0  0  0
 11 13  1  0  0  0  0
 11 31  1  0  0  0  0
 12 14  2  0  0  0  0
 12 32  1  0  0  0  0
 13 15  2  0  0  0  0
 14 15  1  0  0  0  0
 14 33  1  0  0  0  0
 15 34  1  0  0  0  0
M  CHG  1   1   1
M  END
> <PUBCHEM_COMPOUND_CID>
42222613

> <PUBCHEM_COMPOUND_CANONICALIZED>
1

> <PUBCHEM_CACTVS_COMPLEXITY>
185

> <PUBCHEM_CACTVS_HBOND_ACCEPTOR>
1

> <PUBCHEM_CACTVS_HBOND_DONOR>
2

> <PUBCHEM_CACTVS_ROTATABLE_BOND>
2

> <PUBCHEM_CACTVS_SUBSKEYS>
AAADceBzAAAAAAAAAAAAAAAAAAAAAAAAAAA8QAAAAAAAAAABAAAAHAAQAAAADQjBGAQywIPAAACAAiRCQACCAAAgAgAIiIAIZIgIICKAkZGEIAhgkACIyAcQgAAOAAAAQAAAAAAAAACAAAAAAAAAAAAAAA==

> <PUBCHEM_IUPAC_OPENEYE_NAME>
3-[(4-methylpiperidin-1-ium-1-yl)methyl]aniline

> <PUBCHEM_IUPAC_CAS_NAME>
3-[(4-methyl-1-piperidin-1-iumyl)methyl]aniline

> <PUBCHEM_IUPAC_NAME>
3-[(4-methylpiperidin-1-ium-1-yl)methyl]aniline

> <PUBCHEM_IUPAC_SYSTEMATIC_NAME>
3-[(4-methylpiperidin-1-ium-1-yl)methyl]aniline

> <PUBCHEM_IUPAC_TRADITIONAL_NAME>
[3-[(4-methylpiperidin-1-ium-1-yl)methyl]phenyl]amine

> <PUBCHEM_IUPAC_INCHI>
InChI=1S/C13H20N2/c1-11-5-7-15(8-6-11)10-12-3-2-4-13(14)9-12/h2-4,9,11H,5-8,10,14H2,1H3/p+1

> <PUBCHEM_IUPAC_INCHIKEY>
DXYGLOWTZPDQEK-UHFFFAOYSA-O

> <PUBCHEM_XLOGP3>
2

> <PUBCHEM_EXACT_MASS>
205.170474

> <PUBCHEM_MOLECULAR_FORMULA>
C13H21N2+

> <PUBCHEM_MOLECULAR_WEIGHT>
205.31924

> <PUBCHEM_OPENEYE_CAN_SMILES>
CC1CC[NH+](CC1)CC2=CC(=CC=C2)N

> <PUBCHEM_OPENEYE_ISO_SMILES>
CC1CC[NH+](CC1)CC2=CC(=CC=C2)N

> <PUBCHEM_CACTVS_TPSA>
30.5

> <PUBCHEM_MONOISOTOPIC_WEIGHT>
205.170474

> <PUBCHEM_TOTAL_CHARGE>
1

> <PUBCHEM_HEAVY_ATOM_COUNT>
15

> <PUBCHEM_ATOM_DEF_STEREO_COUNT>
0

> <PUBCHEM_ATOM_UDEF_STEREO_COUNT>
0

> <PUBCHEM_BOND_DEF_STEREO_COUNT>
0

> <PUBCHEM_BOND_UDEF_STEREO_COUNT>
0

> <PUBCHEM_ISOTOPIC_ATOM_COUNT>
0

> <PUBCHEM_COMPONENT_COUNT>
1

> <PUBCHEM_CACTVS_TAUTO_COUNT>
1

> <PUBCHEM_COORDINATE_TYPE>
1
5
255

> <PUBCHEM_BONDANNOTATIONS>
10  11  8
10  12  8
11  13  8
12  14  8
13  15  8
14  15  8

$$$$
