66090160
  -OEChem-11301218282D

 38 39  0     1  0  0  0  0  0999 V2000
    2.0000   -3.7673    0.0000 Cl  0  0  0  0  0  0  0  0  0  0  0  0
    3.7320    0.2327    0.0000 N   0  0  0  0  0  0  0  0  0  0  0  0
    2.8660   -1.2673    0.0000 C   0  0  3  0  0  0  0  0  0  0  0  0
    3.7320   -0.7673    0.0000 C   0  0  0  0  0  0  0  0  0  0  0  0
    2.8660   -2.2673    0.0000 C   0  0  0  0  0  0  0  0  0  0  0  0
    4.5981    0.7327    0.0000 C   0  0  0  0  0  0  0  0  0  0  0  0
    2.0000   -0.7673    0.0000 C   0  0  0  0  0  0  0  0  0  0  0  0
    4.5981    1.7327    0.0000 C   0  0  0  0  0  0  0  0  0  0  0  0
    5.4641    2.2327    0.0000 C   0  0  0  0  0  0  0  0  0  0  0  0
    2.0000   -2.7673    0.0000 C   0  0  0  0  0  0  0  0  0  0  0  0
    5.4641    3.2327    0.0000 C   0  0  0  0  0  0  0  0  0  0  0  0
    3.7320    2.2327    0.0000 C   0  0  0  0  0  0  0  0  0  0  0  0
    6.3580    1.6980    0.0000 C   0  0  0  0  0  0  0  0  0  0  0  0
    4.5981    3.7327    0.0000 C   0  0  0  0  0  0  0  0  0  0  0  0
    3.7320    3.2327    0.0000 C   0  0  0  0  0  0  0  0  0  0  0  0
    6.3580    3.7673    0.0000 C   0  0  0  0  0  0  0  0  0  0  0  0
    7.2641    2.2118    0.0000 C   0  0  0  0  0  0  0  0  0  0  0  0
    7.2641    3.2535    0.0000 C   0  0  0  0  0  0  0  0  0  0  0  0
    2.8660   -0.6473    0.0000 H   0  0  0  0  0  0  0  0  0  0  0  0
    3.9441   -1.3499    0.0000 H   0  0  0  0  0  0  0  0  0  0  0  0
    4.3426   -0.6597    0.0000 H   0  0  0  0  0  0  0  0  0  0  0  0
    3.0781   -2.8499    0.0000 H   0  0  0  0  0  0  0  0  0  0  0  0
    3.4766   -2.1597    0.0000 H   0  0  0  0  0  0  0  0  0  0  0  0
    3.1951    0.5427    0.0000 H   0  0  0  0  0  0  0  0  0  0  0  0
    4.8101    0.1501    0.0000 H   0  0  0  0  0  0  0  0  0  0  0  0
    5.2087    0.8403    0.0000 H   0  0  0  0  0  0  0  0  0  0  0  0
    2.3100   -0.2304    0.0000 H   0  0  0  0  0  0  0  0  0  0  0  0
    1.4631   -0.4573    0.0000 H   0  0  0  0  0  0  0  0  0  0  0  0
    1.6900   -1.3043    0.0000 H   0  0  0  0  0  0  0  0  0  0  0  0
    1.7880   -2.1847    0.0000 H   0  0  0  0  0  0  0  0  0  0  0  0
    1.3894   -2.8750    0.0000 H   0  0  0  0  0  0  0  0  0  0  0  0
    3.1951    1.9227    0.0000 H   0  0  0  0  0  0  0  0  0  0  0  0
    6.3509    1.0780    0.0000 H   0  0  0  0  0  0  0  0  0  0  0  0
    4.5981    4.3527    0.0000 H   0  0  0  0  0  0  0  0  0  0  0  0
    3.1951    3.5427    0.0000 H   0  0  0  0  0  0  0  0  0  0  0  0
    6.3509    4.3873    0.0000 H   0  0  0  0  0  0  0  0  0  0  0  0
    7.7998    1.8998    0.0000 H   0  0  0  0  0  0  0  0  0  0  0  0
    7.7998    3.5656    0.0000 H   0  0  0  0  0  0  0  0  0  0  0  0
  1 10  1  0  0  0  0
  2  4  1  0  0  0  0
  2  6  1  0  0  0  0
  2 24  1  0  0  0  0
  3  4  1  0  0  0  0
  3  5  1  0  0  0  0
  3  7  1  0  0  0  0
  3 19  1  0  0  0  0
  4 20  1  0  0  0  0
  4 21  1  0  0  0  0
  5 10  1  0  0  0  0
  5 22  1  0  0  0  0
  5 23  1  0  0  0  0
  6  8  1  0  0  0  0
  6 25  1  0  0  0  0
  6 26  1  0  0  0  0
  7 27  1  0  0  0  0
  7 28  1  0  0  0  0
  7 29  1  0  0  0  0
  8  9  1  0  0  0  0
  8 12  2  0  0  0  0
  9 11  1  0  0  0  0
  9 13  2  0  0  0  0
 10 30  1  0  0  0  0
 10 31  1  0  0  0  0
 11 14  1  0  0  0  0
 11 16  2  0  0  0  0
 12 15  1  0  0  0  0
 12 32  1  0  0  0  0
 13 17  1  0  0  0  0
 13 33  1  0  0  0  0
 14 15  2  0  0  0  0
 14 34  1  0  0  0  0
 15 35  1  0  0  0  0
 16 18  1  0  0  0  0
 16 36  1  0  0  0  0
 17 18  2  0  0  0  0
 17 37  1  0  0  0  0
 18 38  1  0  0  0  0
M  END
> <PUBCHEM_COMPOUND_CID>
66090160

> <PUBCHEM_COMPOUND_CANONICALIZED>
1

> <PUBCHEM_CACTVS_COMPLEXITY>
231

> <PUBCHEM_CACTVS_HBOND_ACCEPTOR>
1

> <PUBCHEM_CACTVS_HBOND_DONOR>
1

> <PUBCHEM_CACTVS_ROTATABLE_BOND>
6

> <PUBCHEM_CACTVS_SUBSKEYS>
AAADceB6AAAEAAAAAAAAAAAAAAAAAAAAAAAwYAAAAAAAAADBUAAAHAIQAAAADQPBGEQyAMLAAACAAiBCAACCAAAgAAAIiIAIBogIICKBkRGEIAhgkACIiAcQgMAOgAACAAAQAAAAAAQAACAAAAAAAAAAAA==

> <PUBCHEM_IUPAC_OPENEYE_NAME>
4-chloro-2-methyl-N-(1-naphthylmethyl)butan-1-amine

> <PUBCHEM_IUPAC_CAS_NAME>
4-chloro-2-methyl-N-(1-naphthalenylmethyl)-1-butanamine

> <PUBCHEM_IUPAC_NAME>
4-chloro-2-methyl-N-(naphthalen-1-ylmethyl)butan-1-amine

> <PUBCHEM_IUPAC_SYSTEMATIC_NAME>
4-chloranyl-2-methyl-N-(naphthalen-1-ylmethyl)butan-1-amine

> <PUBCHEM_IUPAC_TRADITIONAL_NAME>
(4-chloro-2-methyl-butyl)-(1-naphthylmethyl)amine

> <PUBCHEM_IUPAC_INCHI>
InChI=1S/C16H20ClN/c1-13(9-10-17)11-18-12-15-7-4-6-14-5-2-3-8-16(14)15/h2-8,13,18H,9-12H2,1H3

> <PUBCHEM_IUPAC_INCHIKEY>
PTUTUDVVRPGJIU-UHFFFAOYSA-N

> <PUBCHEM_XLOGP3>
4.4

> <PUBCHEM_EXACT_MASS>
261.128427

> <PUBCHEM_MOLECULAR_FORMULA>
C16H20ClN

> <PUBCHEM_MOLECULAR_WEIGHT>
261.7897

> <PUBCHEM_OPENEYE_CAN_SMILES>
CC(CCCl)CNCC1=CC=CC2=CC=CC=C21

> <PUBCHEM_OPENEYE_ISO_SMILES>
CC(CCCl)CNCC1=CC=CC2=CC=CC=C21

> <PUBCHEM_CACTVS_TPSA>
12

> <PUBCHEM_MONOISOTOPIC_WEIGHT>
261.128427

> <PUBCHEM_TOTAL_CHARGE>
0

> <PUBCHEM_HEAVY_ATOM_COUNT>
18

> <PUBCHEM_ATOM_DEF_STEREO_COUNT>
0

> <PUBCHEM_ATOM_UDEF_STEREO_COUNT>
1

> <PUBCHEM_BOND_DEF_STEREO_COUNT>
0

> <PUBCHEM_BOND_UDEF_STEREO_COUNT>
0

> <PUBCHEM_ISOTOPIC_ATOM_COUNT>
0

> <PUBCHEM_COMPONENT_COUNT>
1

> <PUBCHEM_CACTVS_TAUTO_COUNT>
1

> <PUBCHEM_COORDINATE_TYPE>
1
5
255

> <PUBCHEM_BONDANNOTATIONS>
11  14  8
11  16  8
12  15  8
13  17  8
14  15  8
16  18  8
17  18  8
3  7  3
8  12  8
8  9  8
9  11  8
9  13  8

$$$$
