42250811
  -OEChem-05231305232D

 30 31  0     0  0  0  0  0  0999 V2000
    3.0000   -1.7073    0.0000 N   0  3  0  0  0  0  0  0  0  0  0  0
    3.0000   -0.7073    0.0000 C   0  0  0  0  0  0  0  0  0  0  0  0
    3.0000    0.2927    0.0000 C   0  0  0  0  0  0  0  0  0  0  0  0
    3.8660    0.7927    0.0000 C   0  0  0  0  0  0  0  0  0  0  0  0
    2.0000   -0.7073    0.0000 C   0  0  0  0  0  0  0  0  0  0  0  0
    4.0000   -0.7073    0.0000 C   0  0  0  0  0  0  0  0  0  0  0  0
    2.1340    0.7927    0.0000 C   0  0  0  0  0  0  0  0  0  0  0  0
    3.8660    1.7927    0.0000 C   0  0  0  0  0  0  0  0  0  0  0  0
    4.7600    0.2580    0.0000 C   0  0  0  0  0  0  0  0  0  0  0  0
    2.1340    1.7927    0.0000 C   0  0  0  0  0  0  0  0  0  0  0  0
    3.0000    2.2927    0.0000 C   0  0  0  0  0  0  0  0  0  0  0  0
    4.7600    2.3273    0.0000 C   0  0  0  0  0  0  0  0  0  0  0  0
    5.6660    0.7719    0.0000 C   0  0  0  0  0  0  0  0  0  0  0  0
    5.6660    1.8135    0.0000 C   0  0  0  0  0  0  0  0  0  0  0  0
    3.0000   -2.3273    0.0000 H   0  0  0  0  0  0  0  0  0  0  0  0
    2.3800   -1.7073    0.0000 H   0  0  0  0  0  0  0  0  0  0  0  0
    3.6200   -1.7073    0.0000 H   0  0  0  0  0  0  0  0  0  0  0  0
    4.0000   -1.3273    0.0000 H   0  0  0  0  0  0  0  0  0  0  0  0
    4.6200   -0.7073    0.0000 H   0  0  0  0  0  0  0  0  0  0  0  0
    4.0000   -0.0873    0.0000 H   0  0  0  0  0  0  0  0  0  0  0  0
    2.0000   -0.0873    0.0000 H   0  0  0  0  0  0  0  0  0  0  0  0
    1.3800   -0.7073    0.0000 H   0  0  0  0  0  0  0  0  0  0  0  0
    2.0000   -1.3273    0.0000 H   0  0  0  0  0  0  0  0  0  0  0  0
    1.5970    0.4827    0.0000 H   0  0  0  0  0  0  0  0  0  0  0  0
    4.7528   -0.3620    0.0000 H   0  0  0  0  0  0  0  0  0  0  0  0
    1.5970    2.1027    0.0000 H   0  0  0  0  0  0  0  0  0  0  0  0
    3.0000    2.9127    0.0000 H   0  0  0  0  0  0  0  0  0  0  0  0
    4.7528    2.9473    0.0000 H   0  0  0  0  0  0  0  0  0  0  0  0
    6.2018    0.4598    0.0000 H   0  0  0  0  0  0  0  0  0  0  0  0
    6.2018    2.1256    0.0000 H   0  0  0  0  0  0  0  0  0  0  0  0
  1  2  1  0  0  0  0
  1 15  1  0  0  0  0
  1 16  1  0  0  0  0
  1 17  1  0  0  0  0
  2  3  1  0  0  0  0
  2  5  1  0  0  0  0
  2  6  1  0  0  0  0
  3  4  1  0  0  0  0
  3  7  2  0  0  0  0
  4  8  1  0  0  0  0
  4  9  2  0  0  0  0
  5 21  1  0  0  0  0
  5 22  1  0  0  0  0
  5 23  1  0  0  0  0
  6 18  1  0  0  0  0
  6 19  1  0  0  0  0
  6 20  1  0  0  0  0
  7 10  1  0  0  0  0
  7 24  1  0  0  0  0
  8 11  1  0  0  0  0
  8 12  2  0  0  0  0
  9 13  1  0  0  0  0
  9 25  1  0  0  0  0
 10 11  2  0  0  0  0
 10 26  1  0  0  0  0
 11 27  1  0  0  0  0
 12 14  1  0  0  0  0
 12 28  1  0  0  0  0
 13 14  2  0  0  0  0
 13 29  1  0  0  0  0
 14 30  1  0  0  0  0
M  CHG  1   1   1
M  END
> <PUBCHEM_COMPOUND_CID>
42250811

> <PUBCHEM_COMPOUND_CANONICALIZED>
1

> <PUBCHEM_CACTVS_COMPLEXITY>
197

> <PUBCHEM_CACTVS_HBOND_ACCEPTOR>
0

> <PUBCHEM_CACTVS_HBOND_DONOR>
1

> <PUBCHEM_CACTVS_ROTATABLE_BOND>
1

> <PUBCHEM_CACTVS_SUBSKEYS>
AAADceByAAAAAAAAAAAAAAAAAAAAAAAAAAAwYAAAAAAAAADBUAAAHAAQAAAADIiBGAAyAMBAAACAAiBCAACCAAAgAAAIiAAABIgIICKAkRGAIABgkAAIiAcQgMAOgAACAAAQAAAAAAQAACAAAAAAAAAAAA==

> <PUBCHEM_IUPAC_OPENEYE_NAME>
[1-methyl-1-(1-naphthyl)ethyl]ammonium

> <PUBCHEM_IUPAC_CAS_NAME>
2-(1-naphthalenyl)propan-2-ylammonium

> <PUBCHEM_IUPAC_NAME>
2-naphthalen-1-ylpropan-2-ylazanium

> <PUBCHEM_IUPAC_SYSTEMATIC_NAME>
2-naphthalen-1-ylpropan-2-ylazanium

> <PUBCHEM_IUPAC_TRADITIONAL_NAME>
[1-methyl-1-(1-naphthyl)ethyl]ammonium

> <PUBCHEM_IUPAC_INCHI>
InChI=1S/C13H15N/c1-13(2,14)12-9-5-7-10-6-3-4-8-11(10)12/h3-9H,14H2,1-2H3/p+1

> <PUBCHEM_IUPAC_INCHIKEY>
MCHJENPCEHYZQU-UHFFFAOYSA-O

> <PUBCHEM_XLOGP3>
2.7

> <PUBCHEM_EXACT_MASS>
186.128275

> <PUBCHEM_MOLECULAR_FORMULA>
C13H16N+

> <PUBCHEM_MOLECULAR_WEIGHT>
186.27284

> <PUBCHEM_OPENEYE_CAN_SMILES>
CC(C)(C1=CC=CC2=CC=CC=C21)[NH3+]

> <PUBCHEM_OPENEYE_ISO_SMILES>
CC(C)(C1=CC=CC2=CC=CC=C21)[NH3+]

> <PUBCHEM_CACTVS_TPSA>
27.6

> <PUBCHEM_MONOISOTOPIC_WEIGHT>
186.128275

> <PUBCHEM_TOTAL_CHARGE>
1

> <PUBCHEM_HEAVY_ATOM_COUNT>
14

> <PUBCHEM_ATOM_DEF_STEREO_COUNT>
0

> <PUBCHEM_ATOM_UDEF_STEREO_COUNT>
0

> <PUBCHEM_BOND_DEF_STEREO_COUNT>
0

> <PUBCHEM_BOND_UDEF_STEREO_COUNT>
0

> <PUBCHEM_ISOTOPIC_ATOM_COUNT>
0

> <PUBCHEM_COMPONENT_COUNT>
1

> <PUBCHEM_CACTVS_TAUTO_COUNT>
1

> <PUBCHEM_COORDINATE_TYPE>
1
5
255

> <PUBCHEM_BONDANNOTATIONS>
10  11  8
12  14  8
13  14  8
3  4  8
3  7  8
4  8  8
4  9  8
7  10  8
8  11  8
8  12  8
9  13  8

$$$$
42250890
  -OEChem-05231305232D

 35 36  0     0  0  0  0  0  0999 V2000
    6.3301   -0.0185    0.0000 O   0  0  0  0  0  0  0  0  0  0  0  0
    8.9282    1.4815    0.0000 N   0  3  0  0  0  0  0  0  0  0  0  0
    8.0622   -0.0185    0.0000 C   0  0  0  0  0  0  0  0  0  0  0  0
    7.1962   -0.5185    0.0000 C   0  0  0  0  0  0  0  0  0  0  0  0
    8.0622    0.9815    0.0000 C   0  0  0  0  0  0  0  0  0  0  0  0
    5.4641   -0.5185    0.0000 C   0  0  0  0  0  0  0  0  0  0  0  0
    4.5981   -0.0185    0.0000 C   0  0  0  0  0  0  0  0  0  0  0  0
    8.9282   -0.5185    0.0000 C   0  0  0  0  0  0  0  0  0  0  0  0
    7.1962   -1.5185    0.0000 C   0  0  0  0  0  0  0  0  0  0  0  0
    3.7320   -0.5185    0.0000 C   0  0  0  0  0  0  0  0  0  0  0  0
    4.5981    0.9815    0.0000 C   0  0  0  0  0  0  0  0  0  0  0  0
    2.8660    0.9815    0.0000 C   0  0  0  0  0  0  0  0  0  0  0  0
    2.8660   -0.0185    0.0000 C   0  0  0  0  0  0  0  0  0  0  0  0
    3.7320    1.4815    0.0000 C   0  0  0  0  0  0  0  0  0  0  0  0
    8.9282   -1.5185    0.0000 C   0  0  0  0  0  0  0  0  0  0  0  0
    8.0622   -2.0185    0.0000 C   0  0  0  0  0  0  0  0  0  0  0  0
    2.0000    1.4815    0.0000 C   0  0  0  0  0  0  0  0  0  0  0  0
    7.8501    1.5641    0.0000 H   0  0  0  0  0  0  0  0  0  0  0  0
    7.4516    0.8739    0.0000 H   0  0  0  0  0  0  0  0  0  0  0  0
    5.0656   -0.9934    0.0000 H   0  0  0  0  0  0  0  0  0  0  0  0
    5.8626   -0.9934    0.0000 H   0  0  0  0  0  0  0  0  0  0  0  0
    9.4651   -0.2085    0.0000 H   0  0  0  0  0  0  0  0  0  0  0  0
    6.6592   -1.8285    0.0000 H   0  0  0  0  0  0  0  0  0  0  0  0
    3.7320   -1.1385    0.0000 H   0  0  0  0  0  0  0  0  0  0  0  0
    5.1350    1.2915    0.0000 H   0  0  0  0  0  0  0  0  0  0  0  0
    9.4651    1.7915    0.0000 H   0  0  0  0  0  0  0  0  0  0  0  0
    8.6182    2.0185    0.0000 H   0  0  0  0  0  0  0  0  0  0  0  0
    9.2382    0.9446    0.0000 H   0  0  0  0  0  0  0  0  0  0  0  0
    2.3291   -0.3285    0.0000 H   0  0  0  0  0  0  0  0  0  0  0  0
    3.7320    2.1015    0.0000 H   0  0  0  0  0  0  0  0  0  0  0  0
    9.4651   -1.8285    0.0000 H   0  0  0  0  0  0  0  0  0  0  0  0
    8.0622   -2.6385    0.0000 H   0  0  0  0  0  0  0  0  0  0  0  0
    2.3100    2.0185    0.0000 H   0  0  0  0  0  0  0  0  0  0  0  0
    1.4631    1.7915    0.0000 H   0  0  0  0  0  0  0  0  0  0  0  0
    1.6900    0.9446    0.0000 H   0  0  0  0  0  0  0  0  0  0  0  0
  1  4  1  0  0  0  0
  1  6  1  0  0  0  0
  2  5  1  0  0  0  0
  2 26  1  0  0  0  0
  2 27  1  0  0  0  0
  2 28  1  0  0  0  0
  3  4  1  0  0  0  0
  3  5  1  0  0  0  0
  3  8  2  0  0  0  0
  4  9  2  0  0  0  0
  5 18  1  0  0  0  0
  5 19  1  0  0  0  0
  6  7  1  0  0  0  0
  6 20  1  0  0  0  0
  6 21  1  0  0  0  0
  7 10  2  0  0  0  0
  7 11  1  0  0  0  0
  8 15  1  0  0  0  0
  8 22  1  0  0  0  0
  9 16  1  0  0  0  0
  9 23  1  0  0  0  0
 10 13  1  0  0  0  0
 10 24  1  0  0  0  0
 11 14  2  0  0  0  0
 11 25  1  0  0  0  0
 12 13  2  0  0  0  0
 12 14  1  0  0  0  0
 12 17  1  0  0  0  0
 13 29  1  0  0  0  0
 14 30  1  0  0  0  0
 15 16  2  0  0  0  0
 15 31  1  0  0  0  0
 16 32  1  0  0  0  0
 17 33  1  0  0  0  0
 17 34  1  0  0  0  0
 17 35  1  0  0  0  0
M  CHG  1   2   1
M  END
> <PUBCHEM_COMPOUND_CID>
42250890

> <PUBCHEM_COMPOUND_CANONICALIZED>
1

> <PUBCHEM_CACTVS_COMPLEXITY>
211

> <PUBCHEM_CACTVS_HBOND_ACCEPTOR>
1

> <PUBCHEM_CACTVS_HBOND_DONOR>
1

> <PUBCHEM_CACTVS_ROTATABLE_BOND>
4

> <PUBCHEM_CACTVS_SUBSKEYS>
AAADceByIAAAAAAAAAAAAAAAAAAAAAAAAAAwYAAAAAAAAAABQAAAHgAQAAAADAThmAYyBoBABACAAiBCAACCCAAgIAAIiIAGDIgMJiKEsRuCOCDmwBEIqAeQwDAOQAAAAAAIAACAAAAAABAAAAAAAAAAAA==

> <PUBCHEM_IUPAC_OPENEYE_NAME>
[2-(p-tolylmethoxy)phenyl]methylammonium

> <PUBCHEM_IUPAC_CAS_NAME>
[2-[(4-methylphenyl)methoxy]phenyl]methylammonium

> <PUBCHEM_IUPAC_NAME>
[2-[(4-methylphenyl)methoxy]phenyl]methylazanium

> <PUBCHEM_IUPAC_SYSTEMATIC_NAME>
[2-[(4-methylphenyl)methoxy]phenyl]methylazanium

> <PUBCHEM_IUPAC_TRADITIONAL_NAME>
[2-(4-methylbenzyl)oxybenzyl]ammonium

> <PUBCHEM_IUPAC_INCHI>
InChI=1S/C15H17NO/c1-12-6-8-13(9-7-12)11-17-15-5-3-2-4-14(15)10-16/h2-9H,10-11,16H2,1H3/p+1

> <PUBCHEM_IUPAC_INCHIKEY>
ZBDSIFYVLWXOPJ-UHFFFAOYSA-O

> <PUBCHEM_XLOGP3>
1.8

> <PUBCHEM_EXACT_MASS>
228.138839

> <PUBCHEM_MOLECULAR_FORMULA>
C15H18NO+

> <PUBCHEM_MOLECULAR_WEIGHT>
228.30952

> <PUBCHEM_OPENEYE_CAN_SMILES>
CC1=CC=C(C=C1)COC2=CC=CC=C2C[NH3+]

> <PUBCHEM_OPENEYE_ISO_SMILES>
CC1=CC=C(C=C1)COC2=CC=CC=C2C[NH3+]

> <PUBCHEM_CACTVS_TPSA>
36.9

> <PUBCHEM_MONOISOTOPIC_WEIGHT>
228.138839

> <PUBCHEM_TOTAL_CHARGE>
1

> <PUBCHEM_HEAVY_ATOM_COUNT>
17

> <PUBCHEM_ATOM_DEF_STEREO_COUNT>
0

> <PUBCHEM_ATOM_UDEF_STEREO_COUNT>
0

> <PUBCHEM_BOND_DEF_STEREO_COUNT>
0

> <PUBCHEM_BOND_UDEF_STEREO_COUNT>
0

> <PUBCHEM_ISOTOPIC_ATOM_COUNT>
0

> <PUBCHEM_COMPONENT_COUNT>
1

> <PUBCHEM_CACTVS_TAUTO_COUNT>
1

> <PUBCHEM_COORDINATE_TYPE>
1
5
255

> <PUBCHEM_BONDANNOTATIONS>
10  13  8
11  14  8
12  13  8
12  14  8
15  16  8
3  4  8
3  8  8
4  9  8
7  10  8
7  11  8
8  15  8
9  16  8

$$$$
42254684
  -OEChem-05231305232D

 41 42  0     0  0  0  0  0  0999 V2000
    3.0000   -0.2864    0.0000 O   0  0  0  0  0  0  0  0  0  0  0  0
    6.5000   -1.1524    0.0000 N   0  3  0  0  0  0  0  0  0  0  0  0
    7.3660    2.3476    0.0000 N   0  3  0  0  0  0  0  0  0  0  0  0
    6.5000    0.8476    0.0000 C   0  0  0  0  0  0  0  0  0  0  0  0
    5.6340   -0.6524    0.0000 C   0  0  0  0  0  0  0  0  0  0  0  0
    7.3660   -0.6524    0.0000 C   0  0  0  0  0  0  0  0  0  0  0  0
    5.6340    0.3476    0.0000 C   0  0  0  0  0  0  0  0  0  0  0  0
    7.3660    0.3476    0.0000 C   0  0  0  0  0  0  0  0  0  0  0  0
    6.0000   -2.0185    0.0000 C   0  0  0  0  0  0  0  0  0  0  0  0
    6.5000    1.8476    0.0000 C   0  0  0  0  0  0  0  0  0  0  0  0
    5.0000   -2.0185    0.0000 C   0  0  0  0  0  0  0  0  0  0  0  0
    4.5000   -1.1524    0.0000 C   0  0  0  0  0  0  0  0  0  0  0  0
    4.5000   -2.8845    0.0000 C   0  0  0  0  0  0  0  0  0  0  0  0
    3.5000   -1.1524    0.0000 C   0  0  0  0  0  0  0  0  0  0  0  0
    3.5000   -2.8845    0.0000 C   0  0  0  0  0  0  0  0  0  0  0  0
    3.0000   -2.0185    0.0000 C   0  0  0  0  0  0  0  0  0  0  0  0
    2.0000   -0.2864    0.0000 C   0  0  0  0  0  0  0  0  0  0  0  0
    6.8100   -1.6894    0.0000 H   0  0  0  0  0  0  0  0  0  0  0  0
    7.0369    1.1576    0.0000 H   0  0  0  0  0  0  0  0  0  0  0  0
    7.5781   -1.2350    0.0000 H   0  0  0  0  0  0  0  0  0  0  0  0
    7.9766   -0.5448    0.0000 H   0  0  0  0  0  0  0  0  0  0  0  0
    5.0234   -0.5448    0.0000 H   0  0  0  0  0  0  0  0  0  0  0  0
    5.4219   -1.2350    0.0000 H   0  0  0  0  0  0  0  0  0  0  0  0
    7.9766    0.2399    0.0000 H   0  0  0  0  0  0  0  0  0  0  0  0
    7.5781    0.9302    0.0000 H   0  0  0  0  0  0  0  0  0  0  0  0
    5.4219    0.9302    0.0000 H   0  0  0  0  0  0  0  0  0  0  0  0
    5.0234    0.2399    0.0000 H   0  0  0  0  0  0  0  0  0  0  0  0
    5.8923   -2.6290    0.0000 H   0  0  0  0  0  0  0  0  0  0  0  0
    6.5826   -2.2305    0.0000 H   0  0  0  0  0  0  0  0  0  0  0  0
    6.2880    2.4302    0.0000 H   0  0  0  0  0  0  0  0  0  0  0  0
    5.8894    1.7399    0.0000 H   0  0  0  0  0  0  0  0  0  0  0  0
    7.9030    2.6576    0.0000 H   0  0  0  0  0  0  0  0  0  0  0  0
    7.0560    2.8845    0.0000 H   0  0  0  0  0  0  0  0  0  0  0  0
    7.6760    1.8106    0.0000 H   0  0  0  0  0  0  0  0  0  0  0  0
    4.8100   -0.6155    0.0000 H   0  0  0  0  0  0  0  0  0  0  0  0
    4.8100   -3.4214    0.0000 H   0  0  0  0  0  0  0  0  0  0  0  0
    3.1900   -3.4214    0.0000 H   0  0  0  0  0  0  0  0  0  0  0  0
    2.3800   -2.0185    0.0000 H   0  0  0  0  0  0  0  0  0  0  0  0
    2.0000    0.3336    0.0000 H   0  0  0  0  0  0  0  0  0  0  0  0
    1.3800   -0.2864    0.0000 H   0  0  0  0  0  0  0  0  0  0  0  0
    2.0000   -0.9064    0.0000 H   0  0  0  0  0  0  0  0  0  0  0  0
  1 14  1  0  0  0  0
  1 17  1  0  0  0  0
  2  5  1  0  0  0  0
  2  6  1  0  0  0  0
  2  9  1  0  0  0  0
  2 18  1  0  0  0  0
  3 10  1  0  0  0  0
  3 32  1  0  0  0  0
  3 33  1  0  0  0  0
  3 34  1  0  0  0  0
  4  7  1  0  0  0  0
  4  8  1  0  0  0  0
  4 10  1  0  0  0  0
  4 19  1  0  0  0  0
  5  7  1  0  0  0  0
  5 22  1  0  0  0  0
  5 23  1  0  0  0  0
  6  8  1  0  0  0  0
  6 20  1  0  0  0  0
  6 21  1  0  0  0  0
  7 26  1  0  0  0  0
  7 27  1  0  0  0  0
  8 24  1  0  0  0  0
  8 25  1  0  0  0  0
  9 11  1  0  0  0  0
  9 28  1  0  0  0  0
  9 29  1  0  0  0  0
 10 30  1  0  0  0  0
 10 31  1  0  0  0  0
 11 12  2  0  0  0  0
 11 13  1  0  0  0  0
 12 14  1  0  0  0  0
 12 35  1  0  0  0  0
 13 15  2  0  0  0  0
 13 36  1  0  0  0  0
 14 16  2  0  0  0  0
 15 16  1  0  0  0  0
 15 37  1  0  0  0  0
 16 38  1  0  0  0  0
 17 39  1  0  0  0  0
 17 40  1  0  0  0  0
 17 41  1  0  0  0  0
M  CHG  2   2   1   3   1
M  END
> <PUBCHEM_COMPOUND_CID>
42254684

> <PUBCHEM_COMPOUND_CANONICALIZED>
1

> <PUBCHEM_CACTVS_COMPLEXITY>
214

> <PUBCHEM_CACTVS_HBOND_ACCEPTOR>
1

> <PUBCHEM_CACTVS_HBOND_DONOR>
2

> <PUBCHEM_CACTVS_ROTATABLE_BOND>
4

> <PUBCHEM_CACTVS_SUBSKEYS>
AAADceBzIAAAAAAAAAAAAAAAAAAAAAAAAAA8QAAAAAAAAAABAAAAHgAQAAAADQTBmAYyBoPABACAAiBCAACCCAAgIAAIiIAODIgMJiKEsRuEMChk0BGIqAewwBAOAAABAAAAAAAAAAIAAAAAAAAAAAAAAA==

> <PUBCHEM_IUPAC_OPENEYE_NAME>
[1-[(3-methoxyphenyl)methyl]piperidin-1-ium-4-yl]methylammonium

> <PUBCHEM_IUPAC_CAS_NAME>
[1-[(3-methoxyphenyl)methyl]-4-piperidin-1-iumyl]methylammonium

> <PUBCHEM_IUPAC_NAME>
[1-[(3-methoxyphenyl)methyl]piperidin-1-ium-4-yl]methylazanium

> <PUBCHEM_IUPAC_SYSTEMATIC_NAME>
[1-[(3-methoxyphenyl)methyl]piperidin-1-ium-4-yl]methylazanium

> <PUBCHEM_IUPAC_TRADITIONAL_NAME>
(1-m-anisylpiperidin-1-ium-4-yl)methylammonium

> <PUBCHEM_IUPAC_INCHI>
InChI=1S/C14H22N2O/c1-17-14-4-2-3-13(9-14)11-16-7-5-12(10-15)6-8-16/h2-4,9,12H,5-8,10-11,15H2,1H3/p+2

> <PUBCHEM_IUPAC_INCHIKEY>
KPHVUQOITVRPOE-UHFFFAOYSA-P

> <PUBCHEM_XLOGP3>
2.1

> <PUBCHEM_EXACT_MASS>
236.188863

> <PUBCHEM_MOLECULAR_FORMULA>
C14H24N2O+2

> <PUBCHEM_MOLECULAR_WEIGHT>
236.35316

> <PUBCHEM_OPENEYE_CAN_SMILES>
COC1=CC=CC(=C1)C[NH+]2CCC(CC2)C[NH3+]

> <PUBCHEM_OPENEYE_ISO_SMILES>
COC1=CC=CC(=C1)C[NH+]2CCC(CC2)C[NH3+]

> <PUBCHEM_CACTVS_TPSA>
41.3

> <PUBCHEM_MONOISOTOPIC_WEIGHT>
236.188863

> <PUBCHEM_TOTAL_CHARGE>
2

> <PUBCHEM_HEAVY_ATOM_COUNT>
17

> <PUBCHEM_ATOM_DEF_STEREO_COUNT>
0

> <PUBCHEM_ATOM_UDEF_STEREO_COUNT>
0

> <PUBCHEM_BOND_DEF_STEREO_COUNT>
0

> <PUBCHEM_BOND_UDEF_STEREO_COUNT>
0

> <PUBCHEM_ISOTOPIC_ATOM_COUNT>
0

> <PUBCHEM_COMPONENT_COUNT>
1

> <PUBCHEM_CACTVS_TAUTO_COUNT>
1

> <PUBCHEM_COORDINATE_TYPE>
1
5
255

> <PUBCHEM_BONDANNOTATIONS>
11  12  8
11  13  8
12  14  8
13  15  8
14  16  8
15  16  8

$$$$
