29230282
  -OEChem-03221309322D

 39 41  0     0  0  0  0  0  0999 V2000
    6.7619    2.3341    0.0000 O   0  0  0  0  0  0  0  0  0  0  0  0
    6.7619    0.6020    0.0000 N   0  0  0  0  0  0  0  0  0  0  0  0
    4.6783    2.2728    0.0000 N   0  0  0  0  0  0  0  0  0  0  0  0
    7.7619    0.6020    0.0000 C   0  0  0  0  0  0  0  0  0  0  0  0
    5.2619    1.4680    0.0000 C   0  0  0  0  0  0  0  0  0  0  0  0
    3.7320    1.9680    0.0000 C   0  0  0  0  0  0  0  0  0  0  0  0
    3.7320    0.9680    0.0000 C   0  0  0  0  0  0  0  0  0  0  0  0
    6.2619    1.4680    0.0000 C   0  0  0  0  0  0  0  0  0  0  0  0
    8.2619   -0.2640    0.0000 C   0  0  0  0  0  0  0  0  0  0  0  0
    4.6783    0.6633    0.0000 C   0  0  0  0  0  0  0  0  0  0  0  0
    6.2619   -0.2640    0.0000 C   0  0  0  0  0  0  0  0  0  0  0  0
    2.8660    2.4680    0.0000 C   0  0  0  0  0  0  0  0  0  0  0  0
    2.8660    0.4680    0.0000 C   0  0  0  0  0  0  0  0  0  0  0  0
    7.7619   -1.1300    0.0000 C   0  0  0  0  0  0  0  0  0  0  0  0
    9.2619   -0.2640    0.0000 C   0  0  0  0  0  0  0  0  0  0  0  0
    9.2619   -1.9961    0.0000 C   0  0  0  0  0  0  0  0  0  0  0  0
    8.2619   -1.9961    0.0000 C   0  0  0  0  0  0  0  0  0  0  0  0
    9.7619   -1.1300    0.0000 C   0  0  0  0  0  0  0  0  0  0  0  0
    2.0000    1.9680    0.0000 C   0  0  0  0  0  0  0  0  0  0  0  0
    2.0000    0.9680    0.0000 C   0  0  0  0  0  0  0  0  0  0  0  0
    9.7619   -2.8621    0.0000 C   0  0  0  0  0  0  0  0  0  0  0  0
    8.3445    0.8141    0.0000 H   0  0  0  0  0  0  0  0  0  0  0  0
    7.6542    1.2126    0.0000 H   0  0  0  0  0  0  0  0  0  0  0  0
    4.8709    2.8621    0.0000 H   0  0  0  0  0  0  0  0  0  0  0  0
    4.8709    0.0740    0.0000 H   0  0  0  0  0  0  0  0  0  0  0  0
    5.7249    0.0460    0.0000 H   0  0  0  0  0  0  0  0  0  0  0  0
    5.9519   -0.8010    0.0000 H   0  0  0  0  0  0  0  0  0  0  0  0
    6.7988   -0.5740    0.0000 H   0  0  0  0  0  0  0  0  0  0  0  0
    2.8660    3.0880    0.0000 H   0  0  0  0  0  0  0  0  0  0  0  0
    2.8660   -0.1520    0.0000 H   0  0  0  0  0  0  0  0  0  0  0  0
    7.1419   -1.1300    0.0000 H   0  0  0  0  0  0  0  0  0  0  0  0
    9.5719    0.2729    0.0000 H   0  0  0  0  0  0  0  0  0  0  0  0
    7.9519   -2.5330    0.0000 H   0  0  0  0  0  0  0  0  0  0  0  0
   10.3819   -1.1300    0.0000 H   0  0  0  0  0  0  0  0  0  0  0  0
    1.4631    2.2780    0.0000 H   0  0  0  0  0  0  0  0  0  0  0  0
    1.4631    0.6580    0.0000 H   0  0  0  0  0  0  0  0  0  0  0  0
    9.2249   -3.1721    0.0000 H   0  0  0  0  0  0  0  0  0  0  0  0
   10.0719   -3.3990    0.0000 H   0  0  0  0  0  0  0  0  0  0  0  0
   10.2988   -2.5521    0.0000 H   0  0  0  0  0  0  0  0  0  0  0  0
  1  8  2  0  0  0  0
  2  4  1  0  0  0  0
  2  8  1  0  0  0  0
  2 11  1  0  0  0  0
  3  5  1  0  0  0  0
  3  6  1  0  0  0  0
  3 24  1  0  0  0  0
  4  9  1  0  0  0  0
  4 22  1  0  0  0  0
  4 23  1  0  0  0  0
  5  8  1  0  0  0  0
  5 10  2  0  0  0  0
  6  7  1  0  0  0  0
  6 12  2  0  0  0  0
  7 10  1  0  0  0  0
  7 13  2  0  0  0  0
  9 14  2  0  0  0  0
  9 15  1  0  0  0  0
 10 25  1  0  0  0  0
 11 26  1  0  0  0  0
 11 27  1  0  0  0  0
 11 28  1  0  0  0  0
 12 19  1  0  0  0  0
 12 29  1  0  0  0  0
 13 20  1  0  0  0  0
 13 30  1  0  0  0  0
 14 17  1  0  0  0  0
 14 31  1  0  0  0  0
 15 18  2  0  0  0  0
 15 32  1  0  0  0  0
 16 17  2  0  0  0  0
 16 18  1  0  0  0  0
 16 21  1  0  0  0  0
 17 33  1  0  0  0  0
 18 34  1  0  0  0  0
 19 20  2  0  0  0  0
 19 35  1  0  0  0  0
 20 36  1  0  0  0  0
 21 37  1  0  0  0  0
 21 38  1  0  0  0  0
 21 39  1  0  0  0  0
M  END
> <PUBCHEM_COMPOUND_CID>
29230282

> <PUBCHEM_COMPOUND_CANONICALIZED>
1

> <PUBCHEM_CACTVS_COMPLEXITY>
362

> <PUBCHEM_CACTVS_HBOND_ACCEPTOR>
1

> <PUBCHEM_CACTVS_HBOND_DONOR>
1

> <PUBCHEM_CACTVS_ROTATABLE_BOND>
3

> <PUBCHEM_CACTVS_SUBSKEYS>
AAADceB7IAAAAAAAAAAAAAAAAAAAAWAAAAAwYAAAAAAAAFgB9AAAHgAQAAAADAjBngQywPPJkACoAyVyVACCgCAnAiAImSG4ZNgIYPLAlbGUIQhglgDIyYcYiYCeQAAAAAACAACAAAAAAAQAAAAAAAAAAA==

> <PUBCHEM_IUPAC_OPENEYE_NAME>
N-methyl-N-(p-tolylmethyl)-1H-indole-2-carboxamide

> <PUBCHEM_IUPAC_CAS_NAME>
N-methyl-N-[(4-methylphenyl)methyl]-1H-indole-2-carboxamide

> <PUBCHEM_IUPAC_NAME>
N-methyl-N-[(4-methylphenyl)methyl]-1H-indole-2-carboxamide

> <PUBCHEM_IUPAC_SYSTEMATIC_NAME>
N-methyl-N-[(4-methylphenyl)methyl]-1H-indole-2-carboxamide

> <PUBCHEM_IUPAC_TRADITIONAL_NAME>
N-methyl-N-(4-methylbenzyl)-1H-indole-2-carboxamide

> <PUBCHEM_IUPAC_INCHI>
InChI=1S/C18H18N2O/c1-13-7-9-14(10-8-13)12-20(2)18(21)17-11-15-5-3-4-6-16(15)19-17/h3-11,19H,12H2,1-2H3

> <PUBCHEM_IUPAC_INCHIKEY>
AMBNUICJHUGAJQ-UHFFFAOYSA-N

> <PUBCHEM_XLOGP3>
4.1

> <PUBCHEM_EXACT_MASS>
278.141913

> <PUBCHEM_MOLECULAR_FORMULA>
C18H18N2O

> <PUBCHEM_MOLECULAR_WEIGHT>
278.34832

> <PUBCHEM_OPENEYE_CAN_SMILES>
CC1=CC=C(C=C1)CN(C)C(=O)C2=CC3=CC=CC=C3N2

> <PUBCHEM_OPENEYE_ISO_SMILES>
CC1=CC=C(C=C1)CN(C)C(=O)C2=CC3=CC=CC=C3N2

> <PUBCHEM_CACTVS_TPSA>
36.1

> <PUBCHEM_MONOISOTOPIC_WEIGHT>
278.141913

> <PUBCHEM_TOTAL_CHARGE>
0

> <PUBCHEM_HEAVY_ATOM_COUNT>
21

> <PUBCHEM_ATOM_DEF_STEREO_COUNT>
0

> <PUBCHEM_ATOM_UDEF_STEREO_COUNT>
0

> <PUBCHEM_BOND_DEF_STEREO_COUNT>
0

> <PUBCHEM_BOND_UDEF_STEREO_COUNT>
0

> <PUBCHEM_ISOTOPIC_ATOM_COUNT>
0

> <PUBCHEM_COMPONENT_COUNT>
1

> <PUBCHEM_CACTVS_TAUTO_COUNT>
6

> <PUBCHEM_COORDINATE_TYPE>
1
5
255

> <PUBCHEM_BONDANNOTATIONS>
12  19  8
13  20  8
14  17  8
15  18  8
16  17  8
16  18  8
19  20  8
3  5  8
3  6  8
5  10  8
6  12  8
6  7  8
7  10  8
7  13  8
9  14  8
9  15  8

$$$$
29244457
  -OEChem-03221309332D

 41 42  0     0  0  0  0  0  0999 V2000
    6.3301   -2.0000    0.0000 O   0  0  0  0  0  0  0  0  0  0  0  0
    7.1962   -0.5000    0.0000 N   0  0  0  0  0  0  0  0  0  0  0  0
    4.5981   -1.0000    0.0000 C   0  0  0  0  0  0  0  0  0  0  0  0
    3.7320   -0.5000    0.0000 C   0  0  0  0  0  0  0  0  0  0  0  0
    5.4641   -0.5000    0.0000 C   0  0  0  0  0  0  0  0  0  0  0  0
    2.8660   -1.0000    0.0000 C   0  0  0  0  0  0  0  0  0  0  0  0
    6.3301   -1.0000    0.0000 C   0  0  0  0  0  0  0  0  0  0  0  0
    8.0622   -1.0000    0.0000 C   0  0  0  0  0  0  0  0  0  0  0  0
    8.9282   -0.5000    0.0000 C   0  0  0  0  0  0  0  0  0  0  0  0
    2.0000   -0.5000    0.0000 C   0  0  0  0  0  0  0  0  0  0  0  0
    8.9282    0.5000    0.0000 C   0  0  0  0  0  0  0  0  0  0  0  0
    8.0622   -2.0000    0.0000 C   0  0  0  0  0  0  0  0  0  0  0  0
    9.7942   -1.0000    0.0000 C   0  0  0  0  0  0  0  0  0  0  0  0
    8.9282   -2.5000    0.0000 C   0  0  0  0  0  0  0  0  0  0  0  0
    9.7942   -2.0000    0.0000 C   0  0  0  0  0  0  0  0  0  0  0  0
    9.7942    1.0000    0.0000 C   0  0  0  0  0  0  0  0  0  0  0  0
    8.0622    1.0000    0.0000 C   0  0  0  0  0  0  0  0  0  0  0  0
    9.7942    2.0000    0.0000 C   0  0  0  0  0  0  0  0  0  0  0  0
    8.0622    2.0000    0.0000 C   0  0  0  0  0  0  0  0  0  0  0  0
    8.9282    2.5000    0.0000 C   0  0  0  0  0  0  0  0  0  0  0  0
    4.1996   -1.4750    0.0000 H   0  0  0  0  0  0  0  0  0  0  0  0
    4.9966   -1.4750    0.0000 H   0  0  0  0  0  0  0  0  0  0  0  0
    4.1306   -0.0251    0.0000 H   0  0  0  0  0  0  0  0  0  0  0  0
    3.3335   -0.0251    0.0000 H   0  0  0  0  0  0  0  0  0  0  0  0
    5.8626   -0.0251    0.0000 H   0  0  0  0  0  0  0  0  0  0  0  0
    5.0656   -0.0251    0.0000 H   0  0  0  0  0  0  0  0  0  0  0  0
    2.4675   -1.4750    0.0000 H   0  0  0  0  0  0  0  0  0  0  0  0
    3.2646   -1.4750    0.0000 H   0  0  0  0  0  0  0  0  0  0  0  0
    7.1962    0.1200    0.0000 H   0  0  0  0  0  0  0  0  0  0  0  0
    2.3100    0.0369    0.0000 H   0  0  0  0  0  0  0  0  0  0  0  0
    1.4631   -0.1900    0.0000 H   0  0  0  0  0  0  0  0  0  0  0  0
    1.6900   -1.0369    0.0000 H   0  0  0  0  0  0  0  0  0  0  0  0
    7.5252   -2.3100    0.0000 H   0  0  0  0  0  0  0  0  0  0  0  0
   10.3312   -0.6900    0.0000 H   0  0  0  0  0  0  0  0  0  0  0  0
    8.9282   -3.1200    0.0000 H   0  0  0  0  0  0  0  0  0  0  0  0
   10.3312   -2.3100    0.0000 H   0  0  0  0  0  0  0  0  0  0  0  0
   10.3312    0.6900    0.0000 H   0  0  0  0  0  0  0  0  0  0  0  0
    7.5252    0.6900    0.0000 H   0  0  0  0  0  0  0  0  0  0  0  0
   10.3312    2.3100    0.0000 H   0  0  0  0  0  0  0  0  0  0  0  0
    7.5252    2.3100    0.0000 H   0  0  0  0  0  0  0  0  0  0  0  0
    8.9282    3.1200    0.0000 H   0  0  0  0  0  0  0  0  0  0  0  0
  1  7  2  0  0  0  0
  2  7  1  0  0  0  0
  2  8  1  0  0  0  0
  2 29  1  0  0  0  0
  3  4  1  0  0  0  0
  3  5  1  0  0  0  0
  3 21  1  0  0  0  0
  3 22  1  0  0  0  0
  4  6  1  0  0  0  0
  4 23  1  0  0  0  0
  4 24  1  0  0  0  0
  5  7  1  0  0  0  0
  5 25  1  0  0  0  0
  5 26  1  0  0  0  0
  6 10  1  0  0  0  0
  6 27  1  0  0  0  0
  6 28  1  0  0  0  0
  8  9  1  0  0  0  0
  8 12  2  0  0  0  0
  9 11  1  0  0  0  0
  9 13  2  0  0  0  0
 10 30  1  0  0  0  0
 10 31  1  0  0  0  0
 10 32  1  0  0  0  0
 11 16  2  0  0  0  0
 11 17  1  0  0  0  0
 12 14  1  0  0  0  0
 12 33  1  0  0  0  0
 13 15  1  0  0  0  0
 13 34  1  0  0  0  0
 14 15  2  0  0  0  0
 14 35  1  0  0  0  0
 15 36  1  0  0  0  0
 16 18  1  0  0  0  0
 16 37  1  0  0  0  0
 17 19  2  0  0  0  0
 17 38  1  0  0  0  0
 18 20  2  0  0  0  0
 18 39  1  0  0  0  0
 19 20  1  0  0  0  0
 19 40  1  0  0  0  0
 20 41  1  0  0  0  0
M  END
> <PUBCHEM_COMPOUND_CID>
29244457

> <PUBCHEM_COMPOUND_CANONICALIZED>
1

> <PUBCHEM_CACTVS_COMPLEXITY>
283

> <PUBCHEM_CACTVS_HBOND_ACCEPTOR>
1

> <PUBCHEM_CACTVS_HBOND_DONOR>
1

> <PUBCHEM_CACTVS_ROTATABLE_BOND>
6

> <PUBCHEM_CACTVS_SUBSKEYS>
AAADceB6IAAAAAAAAAAAAAAAAAAAAAAAAAAwYAAAAAAAAAABQAAAHgAQAAAADAiBmAAywILAAACIAiVSUACCAAAhAgAIiAEAZIgIIDLAkZGEIAhglADIyAcYiMAOgAAAAAACAAAAAAAAAAQAAAAAAAAAAA==

> <PUBCHEM_IUPAC_OPENEYE_NAME>
N-(2-phenylphenyl)hexanamide

> <PUBCHEM_IUPAC_CAS_NAME>
N-(2-phenylphenyl)hexanamide

> <PUBCHEM_IUPAC_NAME>
N-(2-phenylphenyl)hexanamide

> <PUBCHEM_IUPAC_SYSTEMATIC_NAME>
N-(2-phenylphenyl)hexanamide

> <PUBCHEM_IUPAC_TRADITIONAL_NAME>
N-(2-phenylphenyl)hexanamide

> <PUBCHEM_IUPAC_INCHI>
InChI=1S/C18H21NO/c1-2-3-5-14-18(20)19-17-13-9-8-12-16(17)15-10-6-4-7-11-15/h4,6-13H,2-3,5,14H2,1H3,(H,19,20)

> <PUBCHEM_IUPAC_INCHIKEY>
NSOZRLFNFXOAGM-UHFFFAOYSA-N

> <PUBCHEM_XLOGP3>
3.9

> <PUBCHEM_EXACT_MASS>
267.162314

> <PUBCHEM_MOLECULAR_FORMULA>
C18H21NO

> <PUBCHEM_MOLECULAR_WEIGHT>
267.36544

> <PUBCHEM_OPENEYE_CAN_SMILES>
CCCCCC(=O)NC1=CC=CC=C1C2=CC=CC=C2

> <PUBCHEM_OPENEYE_ISO_SMILES>
CCCCCC(=O)NC1=CC=CC=C1C2=CC=CC=C2

> <PUBCHEM_CACTVS_TPSA>
29.1

> <PUBCHEM_MONOISOTOPIC_WEIGHT>
267.162314

> <PUBCHEM_TOTAL_CHARGE>
0

> <PUBCHEM_HEAVY_ATOM_COUNT>
20

> <PUBCHEM_ATOM_DEF_STEREO_COUNT>
0

> <PUBCHEM_ATOM_UDEF_STEREO_COUNT>
0

> <PUBCHEM_BOND_DEF_STEREO_COUNT>
0

> <PUBCHEM_BOND_UDEF_STEREO_COUNT>
0

> <PUBCHEM_ISOTOPIC_ATOM_COUNT>
0

> <PUBCHEM_COMPONENT_COUNT>
1

> <PUBCHEM_CACTVS_TAUTO_COUNT>
3

> <PUBCHEM_COORDINATE_TYPE>
1
5
255

> <PUBCHEM_BONDANNOTATIONS>
11  16  8
11  17  8
12  14  8
13  15  8
14  15  8
16  18  8
17  19  8
18  20  8
19  20  8
8  12  8
8  9  8
9  13  8

$$$$
