28079592
  -OEChem-06121304422D

 43 45  0     0  0  0  0  0  0999 V2000
    4.5981    2.0670    0.0000 N   0  3  0  0  0  0  0  0  0  0  0  0
    4.5981    0.0670    0.0000 N   0  0  0  0  0  0  0  0  0  0  0  0
    5.4641    1.5670    0.0000 C   0  0  0  0  0  0  0  0  0  0  0  0
    3.7320    1.5670    0.0000 C   0  0  0  0  0  0  0  0  0  0  0  0
    5.4641    0.5670    0.0000 C   0  0  0  0  0  0  0  0  0  0  0  0
    3.7320    0.5670    0.0000 C   0  0  0  0  0  0  0  0  0  0  0  0
    4.5981   -0.9330    0.0000 C   0  0  0  0  0  0  0  0  0  0  0  0
    5.0981    2.9330    0.0000 C   0  0  0  0  0  0  0  0  0  0  0  0
    3.7320   -1.4330    0.0000 C   0  0  0  0  0  0  0  0  0  0  0  0
    5.4641   -1.4330    0.0000 C   0  0  0  0  0  0  0  0  0  0  0  0
    3.7320   -2.4330    0.0000 C   0  0  0  0  0  0  0  0  0  0  0  0
    6.3301   -0.9330    0.0000 C   0  0  0  0  0  0  0  0  0  0  0  0
    2.8660   -0.9330    0.0000 C   0  0  0  0  0  0  0  0  0  0  0  0
    5.4641   -2.4330    0.0000 C   0  0  0  0  0  0  0  0  0  0  0  0
    2.8660   -2.9330    0.0000 C   0  0  0  0  0  0  0  0  0  0  0  0
    7.1962   -1.4330    0.0000 C   0  0  0  0  0  0  0  0  0  0  0  0
    2.0000   -1.4330    0.0000 C   0  0  0  0  0  0  0  0  0  0  0  0
    6.3301   -2.9330    0.0000 C   0  0  0  0  0  0  0  0  0  0  0  0
    2.0000   -2.4330    0.0000 C   0  0  0  0  0  0  0  0  0  0  0  0
    7.1962   -2.4330    0.0000 C   0  0  0  0  0  0  0  0  0  0  0  0
    4.2881    2.6039    0.0000 H   0  0  0  0  0  0  0  0  0  0  0  0
    6.0747    1.4593    0.0000 H   0  0  0  0  0  0  0  0  0  0  0  0
    5.6762    2.1496    0.0000 H   0  0  0  0  0  0  0  0  0  0  0  0
    3.5200    2.1496    0.0000 H   0  0  0  0  0  0  0  0  0  0  0  0
    3.1215    1.4593    0.0000 H   0  0  0  0  0  0  0  0  0  0  0  0
    3.1215    0.6746    0.0000 H   0  0  0  0  0  0  0  0  0  0  0  0
    3.5200   -0.0156    0.0000 H   0  0  0  0  0  0  0  0  0  0  0  0
    5.6762   -0.0156    0.0000 H   0  0  0  0  0  0  0  0  0  0  0  0
    6.0747    0.6746    0.0000 H   0  0  0  0  0  0  0  0  0  0  0  0
    4.5981   -1.5530    0.0000 H   0  0  0  0  0  0  0  0  0  0  0  0
    5.6350    2.6230    0.0000 H   0  0  0  0  0  0  0  0  0  0  0  0
    5.4081    3.4700    0.0000 H   0  0  0  0  0  0  0  0  0  0  0  0
    4.5611    3.2430    0.0000 H   0  0  0  0  0  0  0  0  0  0  0  0
    6.3301   -0.3130    0.0000 H   0  0  0  0  0  0  0  0  0  0  0  0
    4.2690   -2.7430    0.0000 H   0  0  0  0  0  0  0  0  0  0  0  0
    4.9272   -2.7430    0.0000 H   0  0  0  0  0  0  0  0  0  0  0  0
    2.8660   -0.3130    0.0000 H   0  0  0  0  0  0  0  0  0  0  0  0
    2.8660   -3.5530    0.0000 H   0  0  0  0  0  0  0  0  0  0  0  0
    7.7331   -1.1230    0.0000 H   0  0  0  0  0  0  0  0  0  0  0  0
    1.4631   -1.1230    0.0000 H   0  0  0  0  0  0  0  0  0  0  0  0
    6.3301   -3.5530    0.0000 H   0  0  0  0  0  0  0  0  0  0  0  0
    1.4631   -2.7430    0.0000 H   0  0  0  0  0  0  0  0  0  0  0  0
    7.7331   -2.7430    0.0000 H   0  0  0  0  0  0  0  0  0  0  0  0
  1  3  1  0  0  0  0
  1  4  1  0  0  0  0
  1  8  1  0  0  0  0
  1 21  1  0  0  0  0
  2  5  1  0  0  0  0
  2  6  1  0  0  0  0
  2  7  1  0  0  0  0
  3  5  1  0  0  0  0
  3 22  1  0  0  0  0
  3 23  1  0  0  0  0
  4  6  1  0  0  0  0
  4 24  1  0  0  0  0
  4 25  1  0  0  0  0
  5 28  1  0  0  0  0
  5 29  1  0  0  0  0
  6 26  1  0  0  0  0
  6 27  1  0  0  0  0
  7  9  1  0  0  0  0
  7 10  1  0  0  0  0
  7 30  1  0  0  0  0
  8 31  1  0  0  0  0
  8 32  1  0  0  0  0
  8 33  1  0  0  0  0
  9 11  2  0  0  0  0
  9 13  1  0  0  0  0
 10 12  2  0  0  0  0
 10 14  1  0  0  0  0
 11 15  1  0  0  0  0
 11 35  1  0  0  0  0
 12 16  1  0  0  0  0
 12 34  1  0  0  0  0
 13 17  2  0  0  0  0
 13 37  1  0  0  0  0
 14 18  2  0  0  0  0
 14 36  1  0  0  0  0
 15 19  2  0  0  0  0
 15 38  1  0  0  0  0
 16 20  2  0  0  0  0
 16 39  1  0  0  0  0
 17 19  1  0  0  0  0
 17 40  1  0  0  0  0
 18 20  1  0  0  0  0
 18 41  1  0  0  0  0
 19 42  1  0  0  0  0
 20 43  1  0  0  0  0
M  CHG  1   1   1
M  END
> <PUBCHEM_COMPOUND_CID>
28079592

> <PUBCHEM_COMPOUND_CANONICALIZED>
1

> <PUBCHEM_CACTVS_COMPLEXITY>
253

> <PUBCHEM_CACTVS_HBOND_ACCEPTOR>
1

> <PUBCHEM_CACTVS_HBOND_DONOR>
1

> <PUBCHEM_CACTVS_ROTATABLE_BOND>
3

> <PUBCHEM_CACTVS_SUBSKEYS>
AAADceB7AAAAAAAAAAAAAAAAAAAAAAAAAAA8YIAAAAAAAAABQAAAHAAQAAAADCjBGAQyAIPAAACAAiBCAACCAAAgAAAIiIAIBIgIYCKAkRGUIAhgkACIiAcQgMAOAAAAAAAAAAAAAAAAAAAAAAAAAAAAAA==

> <PUBCHEM_IUPAC_OPENEYE_NAME>
1-benzhydryl-4-methyl-piperazin-4-ium

> <PUBCHEM_IUPAC_CAS_NAME>
1-(diphenylmethyl)-4-methylpiperazin-4-ium

> <PUBCHEM_IUPAC_NAME>
1-benzhydryl-4-methylpiperazin-4-ium

> <PUBCHEM_IUPAC_SYSTEMATIC_NAME>
1-(diphenylmethyl)-4-methyl-piperazin-4-ium

> <PUBCHEM_IUPAC_TRADITIONAL_NAME>
1-benzhydryl-4-methyl-piperazin-4-ium

> <PUBCHEM_IUPAC_INCHI>
InChI=1S/C18H22N2/c1-19-12-14-20(15-13-19)18(16-8-4-2-5-9-16)17-10-6-3-7-11-17/h2-11,18H,12-15H2,1H3/p+1

> <PUBCHEM_IUPAC_INCHIKEY>
UVKZSORBKUEBAZ-UHFFFAOYSA-O

> <PUBCHEM_XLOGP3>
3.6

> <PUBCHEM_EXACT_MASS>
267.186124

> <PUBCHEM_MOLECULAR_FORMULA>
C18H23N2+

> <PUBCHEM_MOLECULAR_WEIGHT>
267.38862

> <PUBCHEM_OPENEYE_CAN_SMILES>
C[NH+]1CCN(CC1)C(C2=CC=CC=C2)C3=CC=CC=C3

> <PUBCHEM_OPENEYE_ISO_SMILES>
C[NH+]1CCN(CC1)C(C2=CC=CC=C2)C3=CC=CC=C3

> <PUBCHEM_CACTVS_TPSA>
7.7

> <PUBCHEM_MONOISOTOPIC_WEIGHT>
267.186124

> <PUBCHEM_TOTAL_CHARGE>
1

> <PUBCHEM_HEAVY_ATOM_COUNT>
20

> <PUBCHEM_ATOM_DEF_STEREO_COUNT>
0

> <PUBCHEM_ATOM_UDEF_STEREO_COUNT>
0

> <PUBCHEM_BOND_DEF_STEREO_COUNT>
0

> <PUBCHEM_BOND_UDEF_STEREO_COUNT>
0

> <PUBCHEM_ISOTOPIC_ATOM_COUNT>
0

> <PUBCHEM_COMPONENT_COUNT>
1

> <PUBCHEM_CACTVS_TAUTO_COUNT>
1

> <PUBCHEM_COORDINATE_TYPE>
1
5
255

> <PUBCHEM_BONDANNOTATIONS>
10  12  8
10  14  8
11  15  8
12  16  8
13  17  8
14  18  8
15  19  8
16  20  8
17  19  8
18  20  8
9  11  8
9  13  8

$$$$
28082427
  -OEChem-06121304422D

 23 23  0     0  0  0  0  0  0999 V2000
    3.7320    0.7500    0.0000 N   0  0  0  0  0  0  0  0  0  0  0  0
    3.7320    1.7500    0.0000 N   0  3  0  0  0  0  0  0  0  0  0  0
    2.8660    0.2500    0.0000 C   0  0  0  0  0  0  0  0  0  0  0  0
    2.8660   -0.7500    0.0000 C   0  0  0  0  0  0  0  0  0  0  0  0
    2.0000   -1.2500    0.0000 C   0  0  0  0  0  0  0  0  0  0  0  0
    3.7320   -1.2500    0.0000 C   0  0  0  0  0  0  0  0  0  0  0  0
    3.7320    2.7500    0.0000 C   0  0  0  0  0  0  0  0  0  0  0  0
    2.0000   -2.2500    0.0000 C   0  0  0  0  0  0  0  0  0  0  0  0
    3.7320   -2.2500    0.0000 C   0  0  0  0  0  0  0  0  0  0  0  0
    2.8660   -2.7500    0.0000 C   0  0  0  0  0  0  0  0  0  0  0  0
    2.6540    0.8326    0.0000 H   0  0  0  0  0  0  0  0  0  0  0  0
    2.2554    0.1423    0.0000 H   0  0  0  0  0  0  0  0  0  0  0  0
    4.2690    0.4400    0.0000 H   0  0  0  0  0  0  0  0  0  0  0  0
    4.3520    1.7500    0.0000 H   0  0  0  0  0  0  0  0  0  0  0  0
    3.1120    1.7500    0.0000 H   0  0  0  0  0  0  0  0  0  0  0  0
    1.4631   -0.9400    0.0000 H   0  0  0  0  0  0  0  0  0  0  0  0
    4.2690   -0.9400    0.0000 H   0  0  0  0  0  0  0  0  0  0  0  0
    4.3520    2.7500    0.0000 H   0  0  0  0  0  0  0  0  0  0  0  0
    3.7320    3.3700    0.0000 H   0  0  0  0  0  0  0  0  0  0  0  0
    3.1120    2.7500    0.0000 H   0  0  0  0  0  0  0  0  0  0  0  0
    1.4631   -2.5600    0.0000 H   0  0  0  0  0  0  0  0  0  0  0  0
    4.2690   -2.5600    0.0000 H   0  0  0  0  0  0  0  0  0  0  0  0
    2.8660   -3.3700    0.0000 H   0  0  0  0  0  0  0  0  0  0  0  0
  1  2  1  0  0  0  0
  1  3  1  0  0  0  0
  1 13  1  0  0  0  0
  2  7  1  0  0  0  0
  2 14  1  0  0  0  0
  2 15  1  0  0  0  0
  3  4  1  0  0  0  0
  3 11  1  0  0  0  0
  3 12  1  0  0  0  0
  4  5  2  0  0  0  0
  4  6  1  0  0  0  0
  5  8  1  0  0  0  0
  5 16  1  0  0  0  0
  6  9  2  0  0  0  0
  6 17  1  0  0  0  0
  7 18  1  0  0  0  0
  7 19  1  0  0  0  0
  7 20  1  0  0  0  0
  8 10  2  0  0  0  0
  8 21  1  0  0  0  0
  9 10  1  0  0  0  0
  9 22  1  0  0  0  0
 10 23  1  0  0  0  0
M  CHG  1   2   1
M  END
> <PUBCHEM_COMPOUND_CID>
28082427

> <PUBCHEM_COMPOUND_CANONICALIZED>
1

> <PUBCHEM_CACTVS_COMPLEXITY>
77.3

> <PUBCHEM_CACTVS_HBOND_ACCEPTOR>
1

> <PUBCHEM_CACTVS_HBOND_DONOR>
2

> <PUBCHEM_CACTVS_ROTATABLE_BOND>
3

> <PUBCHEM_CACTVS_SUBSKEYS>
AAADccBzAAAAAAAAAAAAAAAAAAAAAAAAAAAwAAAAAAAAAAABAAAAHAAYAAAADADBGAQyAIBiAACAAiBCAACCAAAgAAIYqIAABIgIICKAkRGAIABggAAIiAcQgAAOAAAAAAAAAAAAAAAAAAAAAAAAAAAAAA==

> <PUBCHEM_IUPAC_OPENEYE_NAME>
(benzylamino)-methyl-ammonium

> <PUBCHEM_IUPAC_CAS_NAME>
methyl-[(phenylmethyl)amino]ammonium

> <PUBCHEM_IUPAC_NAME>
(benzylamino)-methylazanium

> <PUBCHEM_IUPAC_SYSTEMATIC_NAME>
methyl-[(phenylmethyl)amino]azanium

> <PUBCHEM_IUPAC_TRADITIONAL_NAME>
(benzylamino)-methyl-ammonium

> <PUBCHEM_IUPAC_INCHI>
InChI=1S/C8H12N2/c1-9-10-7-8-5-3-2-4-6-8/h2-6,9-10H,7H2,1H3/p+1

> <PUBCHEM_IUPAC_INCHIKEY>
HDCUSMZVZWLDRZ-UHFFFAOYSA-O

> <PUBCHEM_XLOGP3>
1.3

> <PUBCHEM_EXACT_MASS>
137.107873

> <PUBCHEM_MOLECULAR_FORMULA>
C8H13N2+

> <PUBCHEM_MOLECULAR_WEIGHT>
137.20222

> <PUBCHEM_OPENEYE_CAN_SMILES>
C[NH2+]NCC1=CC=CC=C1

> <PUBCHEM_OPENEYE_ISO_SMILES>
C[NH2+]NCC1=CC=CC=C1

> <PUBCHEM_CACTVS_TPSA>
28.6

> <PUBCHEM_MONOISOTOPIC_WEIGHT>
137.107873

> <PUBCHEM_TOTAL_CHARGE>
1

> <PUBCHEM_HEAVY_ATOM_COUNT>
10

> <PUBCHEM_ATOM_DEF_STEREO_COUNT>
0

> <PUBCHEM_ATOM_UDEF_STEREO_COUNT>
0

> <PUBCHEM_BOND_DEF_STEREO_COUNT>
0

> <PUBCHEM_BOND_UDEF_STEREO_COUNT>
0

> <PUBCHEM_ISOTOPIC_ATOM_COUNT>
0

> <PUBCHEM_COMPONENT_COUNT>
1

> <PUBCHEM_CACTVS_TAUTO_COUNT>
1

> <PUBCHEM_COORDINATE_TYPE>
1
5
255

> <PUBCHEM_BONDANNOTATIONS>
4  5  8
4  6  8
5  8  8
6  9  8
8  10  8
9  10  8

$$$$
28082450
  -OEChem-06121304422D

 35 35  0     0  0  0  0  0  0999 V2000
    3.0000    1.8450    0.0000 N   0  3  0  0  0  0  0  0  0  0  0  0
    3.0000    2.8450    0.0000 N   0  0  0  0  0  0  0  0  0  0  0  0
    3.0000   -1.1550    0.0000 C   0  0  0  0  0  0  0  0  0  0  0  0
    3.0000   -2.1550    0.0000 C   0  0  0  0  0  0  0  0  0  0  0  0
    2.1340   -0.6550    0.0000 C   0  0  0  0  0  0  0  0  0  0  0  0
    3.8660   -0.6550    0.0000 C   0  0  0  0  0  0  0  0  0  0  0  0
    3.0000    0.8450    0.0000 C   0  0  0  0  0  0  0  0  0  0  0  0
    2.1340    0.3450    0.0000 C   0  0  0  0  0  0  0  0  0  0  0  0
    3.8660    0.3450    0.0000 C   0  0  0  0  0  0  0  0  0  0  0  0
    3.0000   -3.1550    0.0000 C   0  0  0  0  0  0  0  0  0  0  0  0
    2.0000   -2.1550    0.0000 C   0  0  0  0  0  0  0  0  0  0  0  0
    4.0000   -2.1550    0.0000 C   0  0  0  0  0  0  0  0  0  0  0  0
    3.5369   -1.4650    0.0000 H   0  0  0  0  0  0  0  0  0  0  0  0
    4.0781   -1.2376    0.0000 H   0  0  0  0  0  0  0  0  0  0  0  0
    4.4766   -0.5473    0.0000 H   0  0  0  0  0  0  0  0  0  0  0  0
    1.5234   -0.5473    0.0000 H   0  0  0  0  0  0  0  0  0  0  0  0
    1.9219   -1.2376    0.0000 H   0  0  0  0  0  0  0  0  0  0  0  0
    3.5369    1.1550    0.0000 H   0  0  0  0  0  0  0  0  0  0  0  0
    4.4766    0.2373    0.0000 H   0  0  0  0  0  0  0  0  0  0  0  0
    4.0781    0.9276    0.0000 H   0  0  0  0  0  0  0  0  0  0  0  0
    1.9219    0.9276    0.0000 H   0  0  0  0  0  0  0  0  0  0  0  0
    1.5234    0.2373    0.0000 H   0  0  0  0  0  0  0  0  0  0  0  0
    3.6200    1.8450    0.0000 H   0  0  0  0  0  0  0  0  0  0  0  0
    2.3800    1.8450    0.0000 H   0  0  0  0  0  0  0  0  0  0  0  0
    4.0000   -2.7750    0.0000 H   0  0  0  0  0  0  0  0  0  0  0  0
    4.6200   -2.1550    0.0000 H   0  0  0  0  0  0  0  0  0  0  0  0
    4.0000   -1.5350    0.0000 H   0  0  0  0  0  0  0  0  0  0  0  0
    2.0000   -1.5350    0.0000 H   0  0  0  0  0  0  0  0  0  0  0  0
    1.3800   -2.1550    0.0000 H   0  0  0  0  0  0  0  0  0  0  0  0
    2.0000   -2.7750    0.0000 H   0  0  0  0  0  0  0  0  0  0  0  0
    2.3800   -3.1550    0.0000 H   0  0  0  0  0  0  0  0  0  0  0  0
    3.0000   -3.7750    0.0000 H   0  0  0  0  0  0  0  0  0  0  0  0
    3.6200   -3.1550    0.0000 H   0  0  0  0  0  0  0  0  0  0  0  0
    3.5369    3.1550    0.0000 H   0  0  0  0  0  0  0  0  0  0  0  0
    2.4631    3.1550    0.0000 H   0  0  0  0  0  0  0  0  0  0  0  0
  1  2  1  0  0  0  0
  1  7  1  0  0  0  0
  1 23  1  0  0  0  0
  1 24  1  0  0  0  0
  2 34  1  0  0  0  0
  2 35  1  0  0  0  0
  3  4  1  0  0  0  0
  3  5  1  0  0  0  0
  3  6  1  0  0  0  0
  3 13  1  0  0  0  0
  4 10  1  0  0  0  0
  4 11  1  0  0  0  0
  4 12  1  0  0  0  0
  5  8  1  0  0  0  0
  5 16  1  0  0  0  0
  5 17  1  0  0  0  0
  6  9  1  0  0  0  0
  6 14  1  0  0  0  0
  6 15  1  0  0  0  0
  7  8  1  0  0  0  0
  7  9  1  0  0  0  0
  7 18  1  0  0  0  0
  8 21  1  0  0  0  0
  8 22  1  0  0  0  0
  9 19  1  0  0  0  0
  9 20  1  0  0  0  0
 10 31  1  0  0  0  0
 10 32  1  0  0  0  0
 10 33  1  0  0  0  0
 11 28  1  0  0  0  0
 11 29  1  0  0  0  0
 11 30  1  0  0  0  0
 12 25  1  0  0  0  0
 12 26  1  0  0  0  0
 12 27  1  0  0  0  0
M  CHG  1   1   1
M  END
> <PUBCHEM_COMPOUND_CID>
28082450

> <PUBCHEM_COMPOUND_CANONICALIZED>
1

> <PUBCHEM_CACTVS_COMPLEXITY>
129

> <PUBCHEM_CACTVS_HBOND_ACCEPTOR>
1

> <PUBCHEM_CACTVS_HBOND_DONOR>
2

> <PUBCHEM_CACTVS_ROTATABLE_BOND>
2

> <PUBCHEM_CACTVS_SUBSKEYS>
AAADceBzAAAAAAAAAAAAAAAAAAAAAAAAAAAwAAAAAAAAAAAAAAAAHAAYAAAADyjBAAQCAABiAAAAAAAAAAAAAAAAAAIQIIAAAAAAAAIAgAAAAAAAEAAAAAEQgMAPgAAAAAAAAAAQAAAAAAAAAAAAAAAAAA==

> <PUBCHEM_IUPAC_OPENEYE_NAME>
amino-(4-tert-butylcyclohexyl)ammonium

> <PUBCHEM_IUPAC_CAS_NAME>
amino-(4-tert-butylcyclohexyl)ammonium

> <PUBCHEM_IUPAC_NAME>
amino-(4-tert-butylcyclohexyl)azanium

> <PUBCHEM_IUPAC_SYSTEMATIC_NAME>
azanyl-(4-tert-butylcyclohexyl)azanium

> <PUBCHEM_IUPAC_TRADITIONAL_NAME>
amino-(4-tert-butylcyclohexyl)ammonium

> <PUBCHEM_IUPAC_INCHI>
InChI=1S/C10H22N2/c1-10(2,3)8-4-6-9(12-11)7-5-8/h8-9,12H,4-7,11H2,1-3H3/p+1

> <PUBCHEM_IUPAC_INCHIKEY>
PVVJJWYCXNXIKC-UHFFFAOYSA-O

> <PUBCHEM_XLOGP3>
2.5

> <PUBCHEM_EXACT_MASS>
171.186124

> <PUBCHEM_MOLECULAR_FORMULA>
C10H23N2+

> <PUBCHEM_MOLECULAR_WEIGHT>
171.30302

> <PUBCHEM_OPENEYE_CAN_SMILES>
CC(C)(C)C1CCC(CC1)[NH2+]N

> <PUBCHEM_OPENEYE_ISO_SMILES>
CC(C)(C)C1CCC(CC1)[NH2+]N

> <PUBCHEM_CACTVS_TPSA>
42.6

> <PUBCHEM_MONOISOTOPIC_WEIGHT>
171.186124

> <PUBCHEM_TOTAL_CHARGE>
1

> <PUBCHEM_HEAVY_ATOM_COUNT>
12

> <PUBCHEM_ATOM_DEF_STEREO_COUNT>
0

> <PUBCHEM_ATOM_UDEF_STEREO_COUNT>
0

> <PUBCHEM_BOND_DEF_STEREO_COUNT>
0

> <PUBCHEM_BOND_UDEF_STEREO_COUNT>
0

> <PUBCHEM_ISOTOPIC_ATOM_COUNT>
0

> <PUBCHEM_COMPONENT_COUNT>
1

> <PUBCHEM_CACTVS_TAUTO_COUNT>
1

> <PUBCHEM_COORDINATE_TYPE>
1
5
255

$$$$
28082488
  -OEChem-06121304422D

 26 26  0     0  0  0  0  0  0999 V2000
    4.5981    1.9400    0.0000 N   0  3  0  0  0  0  0  0  0  0  0  0
    5.4641    2.4400    0.0000 N   0  0  0  0  0  0  0  0  0  0  0  0
    3.7320    0.4400    0.0000 C   0  0  0  0  0  0  0  0  0  0  0  0
    2.8660   -0.0600    0.0000 C   0  0  0  0  0  0  0  0  0  0  0  0
    3.7320    1.4400    0.0000 C   0  0  0  0  0  0  0  0  0  0  0  0
    2.8660   -1.0600    0.0000 C   0  0  0  0  0  0  0  0  0  0  0  0
    2.0000   -1.5600    0.0000 C   0  0  0  0  0  0  0  0  0  0  0  0
    3.7320   -1.5600    0.0000 C   0  0  0  0  0  0  0  0  0  0  0  0
    2.0000   -2.5600    0.0000 C   0  0  0  0  0  0  0  0  0  0  0  0
    3.7320   -2.5600    0.0000 C   0  0  0  0  0  0  0  0  0  0  0  0
    2.8660   -3.0600    0.0000 C   0  0  0  0  0  0  0  0  0  0  0  0
    3.9441   -0.1426    0.0000 H   0  0  0  0  0  0  0  0  0  0  0  0
    4.3426    0.5477    0.0000 H   0  0  0  0  0  0  0  0  0  0  0  0
    2.6540    0.5226    0.0000 H   0  0  0  0  0  0  0  0  0  0  0  0
    2.2554   -0.1677    0.0000 H   0  0  0  0  0  0  0  0  0  0  0  0
    3.5200    2.0226    0.0000 H   0  0  0  0  0  0  0  0  0  0  0  0
    3.1215    1.3323    0.0000 H   0  0  0  0  0  0  0  0  0  0  0  0
    4.2881    2.4769    0.0000 H   0  0  0  0  0  0  0  0  0  0  0  0
    4.9081    1.4031    0.0000 H   0  0  0  0  0  0  0  0  0  0  0  0
    1.4631   -1.2500    0.0000 H   0  0  0  0  0  0  0  0  0  0  0  0
    4.2690   -1.2500    0.0000 H   0  0  0  0  0  0  0  0  0  0  0  0
    1.4631   -2.8700    0.0000 H   0  0  0  0  0  0  0  0  0  0  0  0
    4.2690   -2.8700    0.0000 H   0  0  0  0  0  0  0  0  0  0  0  0
    5.4641    3.0600    0.0000 H   0  0  0  0  0  0  0  0  0  0  0  0
    6.0010    2.1300    0.0000 H   0  0  0  0  0  0  0  0  0  0  0  0
    2.8660   -3.6800    0.0000 H   0  0  0  0  0  0  0  0  0  0  0  0
  1  2  1  0  0  0  0
  1  5  1  0  0  0  0
  1 18  1  0  0  0  0
  1 19  1  0  0  0  0
  2 24  1  0  0  0  0
  2 25  1  0  0  0  0
  3  4  1  0  0  0  0
  3  5  1  0  0  0  0
  3 12  1  0  0  0  0
  3 13  1  0  0  0  0
  4  6  1  0  0  0  0
  4 14  1  0  0  0  0
  4 15  1  0  0  0  0
  5 16  1  0  0  0  0
  5 17  1  0  0  0  0
  6  7  2  0  0  0  0
  6  8  1  0  0  0  0
  7  9  1  0  0  0  0
  7 20  1  0  0  0  0
  8 10  2  0  0  0  0
  8 21  1  0  0  0  0
  9 11  2  0  0  0  0
  9 22  1  0  0  0  0
 10 11  1  0  0  0  0
 10 23  1  0  0  0  0
 11 26  1  0  0  0  0
M  CHG  1   1   1
M  END
> <PUBCHEM_COMPOUND_CID>
28082488

> <PUBCHEM_COMPOUND_CANONICALIZED>
1

> <PUBCHEM_CACTVS_COMPLEXITY>
87.6

> <PUBCHEM_CACTVS_HBOND_ACCEPTOR>
1

> <PUBCHEM_CACTVS_HBOND_DONOR>
2

> <PUBCHEM_CACTVS_ROTATABLE_BOND>
4

> <PUBCHEM_CACTVS_SUBSKEYS>
AAADccBzAAAAAAAAAAAAAAAAAAAAAAAAAAAwAAAAAAAAAAABAAAAHAAYAAAADADBGAQwAIBiAACAAiBCAAACAAAgAAIYqIAAAIgIICKAkRCAIAAgkAAIiAcQgIAOAAAAAAAAAAAAAAAAAAAAAAAAAAAAAA==

> <PUBCHEM_IUPAC_OPENEYE_NAME>
amino(3-phenylpropyl)ammonium

> <PUBCHEM_IUPAC_CAS_NAME>
amino(3-phenylpropyl)ammonium

> <PUBCHEM_IUPAC_NAME>
amino(3-phenylpropyl)azanium

> <PUBCHEM_IUPAC_SYSTEMATIC_NAME>
azanyl(3-phenylpropyl)azanium

> <PUBCHEM_IUPAC_TRADITIONAL_NAME>
amino(3-phenylpropyl)ammonium

> <PUBCHEM_IUPAC_INCHI>
InChI=1S/C9H14N2/c10-11-8-4-7-9-5-2-1-3-6-9/h1-3,5-6,11H,4,7-8,10H2/p+1

> <PUBCHEM_IUPAC_INCHIKEY>
DJQQFWAGPAXTHH-UHFFFAOYSA-O

> <PUBCHEM_XLOGP3>
1.8

> <PUBCHEM_EXACT_MASS>
151.123523

> <PUBCHEM_MOLECULAR_FORMULA>
C9H15N2+

> <PUBCHEM_MOLECULAR_WEIGHT>
151.2288

> <PUBCHEM_OPENEYE_CAN_SMILES>
C1=CC=C(C=C1)CCC[NH2+]N

> <PUBCHEM_OPENEYE_ISO_SMILES>
C1=CC=C(C=C1)CCC[NH2+]N

> <PUBCHEM_CACTVS_TPSA>
42.6

> <PUBCHEM_MONOISOTOPIC_WEIGHT>
151.123523

> <PUBCHEM_TOTAL_CHARGE>
1

> <PUBCHEM_HEAVY_ATOM_COUNT>
11

> <PUBCHEM_ATOM_DEF_STEREO_COUNT>
0

> <PUBCHEM_ATOM_UDEF_STEREO_COUNT>
0

> <PUBCHEM_BOND_DEF_STEREO_COUNT>
0

> <PUBCHEM_BOND_UDEF_STEREO_COUNT>
0

> <PUBCHEM_ISOTOPIC_ATOM_COUNT>
0

> <PUBCHEM_COMPONENT_COUNT>
1

> <PUBCHEM_CACTVS_TAUTO_COUNT>
1

> <PUBCHEM_COORDINATE_TYPE>
1
5
255

> <PUBCHEM_BONDANNOTATIONS>
10  11  8
6  7  8
6  8  8
7  9  8
8  10  8
9  11  8

$$$$
28083042
  -OEChem-06121304422D

 20 20  0     0  0  0  0  0  0999 V2000
    3.1200   -0.2985    0.0000 N   0  3  0  0  0  0  0  0  0  0  0  0
    2.6200   -1.1645    0.0000 N   0  0  0  0  0  0  0  0  0  0  0  0
    2.2540    0.2015    0.0000 C   0  0  0  0  0  0  0  0  0  0  0  0
    3.9860    0.2015    0.0000 C   0  0  0  0  0  0  0  0  0  0  0  0
    2.2540    1.2015    0.0000 C   0  0  0  0  0  0  0  0  0  0  0  0
    3.9860    1.2015    0.0000 C   0  0  0  0  0  0  0  0  0  0  0  0
    3.1200    1.7015    0.0000 C   0  0  0  0  0  0  0  0  0  0  0  0
    3.4300   -0.8355    0.0000 H   0  0  0  0  0  0  0  0  0  0  0  0
    4.1981   -0.3811    0.0000 H   0  0  0  0  0  0  0  0  0  0  0  0
    4.5966    0.3091    0.0000 H   0  0  0  0  0  0  0  0  0  0  0  0
    1.6434    0.3091    0.0000 H   0  0  0  0  0  0  0  0  0  0  0  0
    2.0419   -0.3811    0.0000 H   0  0  0  0  0  0  0  0  0  0  0  0
    2.0419    1.7841    0.0000 H   0  0  0  0  0  0  0  0  0  0  0  0
    1.6434    1.0938    0.0000 H   0  0  0  0  0  0  0  0  0  0  0  0
    4.5966    1.0938    0.0000 H   0  0  0  0  0  0  0  0  0  0  0  0
    4.1981    1.7841    0.0000 H   0  0  0  0  0  0  0  0  0  0  0  0
    3.5185    2.1764    0.0000 H   0  0  0  0  0  0  0  0  0  0  0  0
    2.7215    2.1764    0.0000 H   0  0  0  0  0  0  0  0  0  0  0  0
    2.0000   -1.1645    0.0000 H   0  0  0  0  0  0  0  0  0  0  0  0
    2.9300   -1.7015    0.0000 H   0  0  0  0  0  0  0  0  0  0  0  0
  1  2  1  0  0  0  0
  1  3  1  0  0  0  0
  1  4  1  0  0  0  0
  1  8  1  0  0  0  0
  2 19  1  0  0  0  0
  2 20  1  0  0  0  0
  3  5  1  0  0  0  0
  3 11  1  0  0  0  0
  3 12  1  0  0  0  0
  4  6  1  0  0  0  0
  4  9  1  0  0  0  0
  4 10  1  0  0  0  0
  5  7  1  0  0  0  0
  5 13  1  0  0  0  0
  5 14  1  0  0  0  0
  6  7  1  0  0  0  0
  6 15  1  0  0  0  0
  6 16  1  0  0  0  0
  7 17  1  0  0  0  0
  7 18  1  0  0  0  0
M  CHG  1   1   1
M  END
> <PUBCHEM_COMPOUND_CID>
28083042

> <PUBCHEM_COMPOUND_CANONICALIZED>
1

> <PUBCHEM_CACTVS_COMPLEXITY>
48

> <PUBCHEM_CACTVS_HBOND_ACCEPTOR>
1

> <PUBCHEM_CACTVS_HBOND_DONOR>
2

> <PUBCHEM_CACTVS_ROTATABLE_BOND>
0

> <PUBCHEM_CACTVS_SUBSKEYS>
AAADccBjAAAAAAAAAAAAAAAAAAAAAAAAAAAsAAAAAAAAAAAAAAAAHAAYAAAACADBAAQAAALiAAAAAAAAAAAAAAAAAAIQIIAIAAAAAAIAgAAEAAAAEACAAAAQAAAAAAAAAAAAAAAAAAAAAAAAAAAAAAAAAA==

> <PUBCHEM_IUPAC_OPENEYE_NAME>
piperidin-1-ium-1-amine

> <PUBCHEM_IUPAC_CAS_NAME>
1-piperidin-1-iumamine

> <PUBCHEM_IUPAC_NAME>
piperidin-1-ium-1-amine

> <PUBCHEM_IUPAC_SYSTEMATIC_NAME>
piperidin-1-ium-1-amine

> <PUBCHEM_IUPAC_TRADITIONAL_NAME>
piperidin-1-ium-1-ylamine

> <PUBCHEM_IUPAC_INCHI>
InChI=1S/C5H12N2/c6-7-4-2-1-3-5-7/h1-6H2/p+1

> <PUBCHEM_IUPAC_INCHIKEY>
LWMPFIOTEAXAGV-UHFFFAOYSA-O

> <PUBCHEM_XLOGP3>
-0.3

> <PUBCHEM_EXACT_MASS>
101.107873

> <PUBCHEM_MOLECULAR_FORMULA>
C5H13N2+

> <PUBCHEM_MOLECULAR_WEIGHT>
101.17012

> <PUBCHEM_OPENEYE_CAN_SMILES>
C1CC[NH+](CC1)N

> <PUBCHEM_OPENEYE_ISO_SMILES>
C1CC[NH+](CC1)N

> <PUBCHEM_CACTVS_TPSA>
30.5

> <PUBCHEM_MONOISOTOPIC_WEIGHT>
101.107873

> <PUBCHEM_TOTAL_CHARGE>
1

> <PUBCHEM_HEAVY_ATOM_COUNT>
7

> <PUBCHEM_ATOM_DEF_STEREO_COUNT>
0

> <PUBCHEM_ATOM_UDEF_STEREO_COUNT>
0

> <PUBCHEM_BOND_DEF_STEREO_COUNT>
0

> <PUBCHEM_BOND_UDEF_STEREO_COUNT>
0

> <PUBCHEM_ISOTOPIC_ATOM_COUNT>
0

> <PUBCHEM_COMPONENT_COUNT>
1

> <PUBCHEM_CACTVS_TAUTO_COUNT>
1

> <PUBCHEM_COORDINATE_TYPE>
1
5
255

$$$$
28083509
  -OEChem-06121304422D

 38 39  0     0  0  0  0  0  0999 V2000
    2.0000   -2.7500    0.0000 I   0  0  0  0  0  0  0  0  0  0  0  0
    5.4641   -1.7500    0.0000 O   0  0  0  0  0  0  0  0  0  0  0  0
    3.7320   -1.7500    0.0000 N   0  0  0  0  0  0  0  0  0  0  0  0
    5.4641    0.2500    0.0000 C   0  0  0  0  0  0  0  0  0  0  0  0
    5.4641    1.2500    0.0000 C   0  0  0  0  0  0  0  0  0  0  0  0
    4.5981   -0.2500    0.0000 C   0  0  0  0  0  0  0  0  0  0  0  0
    5.4641    3.2500    0.0000 C   0  0  0  0  0  0  0  0  0  0  0  0
    6.3301    1.7500    0.0000 C   0  0  0  0  0  0  0  0  0  0  0  0
    4.5981    1.7500    0.0000 C   0  0  0  0  0  0  0  0  0  0  0  0
    5.4641    4.2500    0.0000 C   0  0  0  0  0  0  0  0  0  0  0  0
    6.3301    2.7500    0.0000 C   0  0  0  0  0  0  0  0  0  0  0  0
    4.5981    2.7500    0.0000 C   0  0  0  0  0  0  0  0  0  0  0  0
    4.5981   -1.2500    0.0000 C   0  0  0  0  0  0  0  0  0  0  0  0
    6.3301    4.7500    0.0000 C   0  0  0  0  0  0  0  0  0  0  0  0
    3.7320   -2.7500    0.0000 C   0  0  0  0  0  0  0  0  0  0  0  0
    2.8660   -3.2500    0.0000 C   0  0  0  0  0  0  0  0  0  0  0  0
    4.5981   -3.2500    0.0000 C   0  0  0  0  0  0  0  0  0  0  0  0
    2.8660   -4.2500    0.0000 C   0  0  0  0  0  0  0  0  0  0  0  0
    4.5981   -4.2500    0.0000 C   0  0  0  0  0  0  0  0  0  0  0  0
    3.7320   -4.7500    0.0000 C   0  0  0  0  0  0  0  0  0  0  0  0
    5.6762   -0.3326    0.0000 H   0  0  0  0  0  0  0  0  0  0  0  0
    6.0747    0.3577    0.0000 H   0  0  0  0  0  0  0  0  0  0  0  0
    4.3860    0.3326    0.0000 H   0  0  0  0  0  0  0  0  0  0  0  0
    3.9875   -0.3577    0.0000 H   0  0  0  0  0  0  0  0  0  0  0  0
    6.8671    1.4400    0.0000 H   0  0  0  0  0  0  0  0  0  0  0  0
    4.0611    1.4400    0.0000 H   0  0  0  0  0  0  0  0  0  0  0  0
    5.2520    4.8326    0.0000 H   0  0  0  0  0  0  0  0  0  0  0  0
    4.8535    4.1423    0.0000 H   0  0  0  0  0  0  0  0  0  0  0  0
    6.8671    3.0600    0.0000 H   0  0  0  0  0  0  0  0  0  0  0  0
    4.0611    3.0600    0.0000 H   0  0  0  0  0  0  0  0  0  0  0  0
    3.1951   -1.4400    0.0000 H   0  0  0  0  0  0  0  0  0  0  0  0
    6.6401    4.2131    0.0000 H   0  0  0  0  0  0  0  0  0  0  0  0
    6.8671    5.0600    0.0000 H   0  0  0  0  0  0  0  0  0  0  0  0
    6.0201    5.2869    0.0000 H   0  0  0  0  0  0  0  0  0  0  0  0
    5.1350   -2.9400    0.0000 H   0  0  0  0  0  0  0  0  0  0  0  0
    2.3291   -4.5600    0.0000 H   0  0  0  0  0  0  0  0  0  0  0  0
    5.1350   -4.5600    0.0000 H   0  0  0  0  0  0  0  0  0  0  0  0
    3.7320   -5.3700    0.0000 H   0  0  0  0  0  0  0  0  0  0  0  0
  1 16  1  0  0  0  0
  2 13  2  0  0  0  0
  3 13  1  0  0  0  0
  3 15  1  0  0  0  0
  3 31  1  0  0  0  0
  4  5  1  0  0  0  0
  4  6  1  0  0  0  0
  4 21  1  0  0  0  0
  4 22  1  0  0  0  0
  5  8  2  0  0  0  0
  5  9  1  0  0  0  0
  6 13  1  0  0  0  0
  6 23  1  0  0  0  0
  6 24  1  0  0  0  0
  7 10  1  0  0  0  0
  7 11  2  0  0  0  0
  7 12  1  0  0  0  0
  8 11  1  0  0  0  0
  8 25  1  0  0  0  0
  9 12  2  0  0  0  0
  9 26  1  0  0  0  0
 10 14  1  0  0  0  0
 10 27  1  0  0  0  0
 10 28  1  0  0  0  0
 11 29  1  0  0  0  0
 12 30  1  0  0  0  0
 14 32  1  0  0  0  0
 14 33  1  0  0  0  0
 14 34  1  0  0  0  0
 15 16  1  0  0  0  0
 15 17  2  0  0  0  0
 16 18  2  0  0  0  0
 17 19  1  0  0  0  0
 17 35  1  0  0  0  0
 18 20  1  0  0  0  0
 18 36  1  0  0  0  0
 19 20  2  0  0  0  0
 19 37  1  0  0  0  0
 20 38  1  0  0  0  0
M  END
> <PUBCHEM_COMPOUND_CID>
28083509

> <PUBCHEM_COMPOUND_CANONICALIZED>
1

> <PUBCHEM_CACTVS_COMPLEXITY>
299

> <PUBCHEM_CACTVS_HBOND_ACCEPTOR>
1

> <PUBCHEM_CACTVS_HBOND_DONOR>
1

> <PUBCHEM_CACTVS_ROTATABLE_BOND>
5

> <PUBCHEM_CACTVS_SUBSKEYS>
AAADceB6IAAAAgAAAAAAAAAAAAAAAAAAAAAwYAAAAAAAAAABQAAAHgAwAAAADAiDmAAywILAAACIAiVSUACCAAAhAgAIiAEAZIgIIDLAkZGEIAhglADIyAcYiMCOQAAAAAAAAACAAAAAAAAAAAAAAAAAAA==

> <PUBCHEM_IUPAC_OPENEYE_NAME>
3-(4-ethylphenyl)-N-(2-iodophenyl)propanamide

> <PUBCHEM_IUPAC_CAS_NAME>
3-(4-ethylphenyl)-N-(2-iodophenyl)propanamide

> <PUBCHEM_IUPAC_NAME>
3-(4-ethylphenyl)-N-(2-iodophenyl)propanamide

> <PUBCHEM_IUPAC_SYSTEMATIC_NAME>
3-(4-ethylphenyl)-N-(2-iodanylphenyl)propanamide

> <PUBCHEM_IUPAC_TRADITIONAL_NAME>
3-(4-ethylphenyl)-N-(2-iodophenyl)propionamide

> <PUBCHEM_IUPAC_INCHI>
InChI=1S/C17H18INO/c1-2-13-7-9-14(10-8-13)11-12-17(20)19-16-6-4-3-5-15(16)18/h3-10H,2,11-12H2,1H3,(H,19,20)

> <PUBCHEM_IUPAC_INCHIKEY>
YWCZTLRZGFJGPZ-UHFFFAOYSA-N

> <PUBCHEM_XLOGP3>
4.2

> <PUBCHEM_EXACT_MASS>
379.043312

> <PUBCHEM_MOLECULAR_FORMULA>
C17H18INO

> <PUBCHEM_MOLECULAR_WEIGHT>
379.23539

> <PUBCHEM_OPENEYE_CAN_SMILES>
CCC1=CC=C(C=C1)CCC(=O)NC2=CC=CC=C2I

> <PUBCHEM_OPENEYE_ISO_SMILES>
CCC1=CC=C(C=C1)CCC(=O)NC2=CC=CC=C2I

> <PUBCHEM_CACTVS_TPSA>
29.1

> <PUBCHEM_MONOISOTOPIC_WEIGHT>
379.043312

> <PUBCHEM_TOTAL_CHARGE>
0

> <PUBCHEM_HEAVY_ATOM_COUNT>
20

> <PUBCHEM_ATOM_DEF_STEREO_COUNT>
0

> <PUBCHEM_ATOM_UDEF_STEREO_COUNT>
0

> <PUBCHEM_BOND_DEF_STEREO_COUNT>
0

> <PUBCHEM_BOND_UDEF_STEREO_COUNT>
0

> <PUBCHEM_ISOTOPIC_ATOM_COUNT>
0

> <PUBCHEM_COMPONENT_COUNT>
1

> <PUBCHEM_CACTVS_TAUTO_COUNT>
3

> <PUBCHEM_COORDINATE_TYPE>
1
5
255

> <PUBCHEM_BONDANNOTATIONS>
15  16  8
15  17  8
16  18  8
17  19  8
18  20  8
19  20  8
5  8  8
5  9  8
7  11  8
7  12  8
8  11  8
9  12  8

$$$$
