31282360
  -OEChem-12041211422D

 51 54  0     0  0  0  0  0  0999 V2000
    8.3289   -1.1347    0.0000 O   0  0  0  0  0  0  0  0  0  0  0  0
    9.1949    0.3653    0.0000 N   0  0  0  0  0  0  0  0  0  0  0  0
    3.7899   -1.3327    0.0000 N   0  0  0  0  0  0  0  0  0  0  0  0
    5.7308    0.3653    0.0000 C   0  0  0  0  0  0  0  0  0  0  0  0
    6.5968   -0.1347    0.0000 C   0  0  0  0  0  0  0  0  0  0  0  0
    4.8648   -0.1347    0.0000 C   0  0  0  0  0  0  0  0  0  0  0  0
    7.4629    0.3653    0.0000 C   0  0  0  0  0  0  0  0  0  0  0  0
    3.9570    0.2704    0.0000 C   0  0  0  0  0  0  0  0  0  0  0  0
    3.2892   -0.4739    0.0000 C   0  0  0  0  0  0  0  0  0  0  0  0
    8.3289   -0.1347    0.0000 C   0  0  0  0  0  0  0  0  0  0  0  0
    4.7617   -1.1235    0.0000 C   0  0  0  0  0  0  0  0  0  0  0  0
   10.0610   -0.1347    0.0000 C   0  0  0  0  0  0  0  0  0  0  0  0
   10.9270    0.3653    0.0000 C   0  0  0  0  0  0  0  0  0  0  0  0
    3.6464    1.2209    0.0000 C   0  0  0  0  0  0  0  0  0  0  0  0
    2.3107   -0.2677    0.0000 C   0  0  0  0  0  0  0  0  0  0  0  0
   11.7930   -0.1347    0.0000 C   0  0  0  0  0  0  0  0  0  0  0  0
   12.6590    0.3653    0.0000 C   0  0  0  0  0  0  0  0  0  0  0  0
    9.1949    1.3653    0.0000 C   0  0  0  0  0  0  0  0  0  0  0  0
   12.6590    1.3653    0.0000 C   0  0  0  0  0  0  0  0  0  0  0  0
   10.9270    1.3653    0.0000 C   0  0  0  0  0  0  0  0  0  0  0  0
    2.6678    1.4271    0.0000 C   0  0  0  0  0  0  0  0  0  0  0  0
    2.0000    0.6828    0.0000 C   0  0  0  0  0  0  0  0  0  0  0  0
   11.7930    1.8653    0.0000 C   0  0  0  0  0  0  0  0  0  0  0  0
   13.5530   -0.1694    0.0000 C   0  0  0  0  0  0  0  0  0  0  0  0
   13.5530    1.8999    0.0000 C   0  0  0  0  0  0  0  0  0  0  0  0
   14.4590    0.3445    0.0000 C   0  0  0  0  0  0  0  0  0  0  0  0
   14.4590    1.3861    0.0000 C   0  0  0  0  0  0  0  0  0  0  0  0
    6.1293    0.8402    0.0000 H   0  0  0  0  0  0  0  0  0  0  0  0
    5.3323    0.8402    0.0000 H   0  0  0  0  0  0  0  0  0  0  0  0
    6.1983   -0.6097    0.0000 H   0  0  0  0  0  0  0  0  0  0  0  0
    6.9954   -0.6097    0.0000 H   0  0  0  0  0  0  0  0  0  0  0  0
    7.8614    0.8402    0.0000 H   0  0  0  0  0  0  0  0  0  0  0  0
    7.0644    0.8402    0.0000 H   0  0  0  0  0  0  0  0  0  0  0  0
    5.2232   -1.5375    0.0000 H   0  0  0  0  0  0  0  0  0  0  0  0
    9.6624   -0.6097    0.0000 H   0  0  0  0  0  0  0  0  0  0  0  0
   10.4595   -0.6097    0.0000 H   0  0  0  0  0  0  0  0  0  0  0  0
    3.5397   -1.8999    0.0000 H   0  0  0  0  0  0  0  0  0  0  0  0
    4.0604    1.6824    0.0000 H   0  0  0  0  0  0  0  0  0  0  0  0
    1.8966   -0.7292    0.0000 H   0  0  0  0  0  0  0  0  0  0  0  0
   11.7930   -0.7547    0.0000 H   0  0  0  0  0  0  0  0  0  0  0  0
    9.8149    1.3653    0.0000 H   0  0  0  0  0  0  0  0  0  0  0  0
    9.1949    1.9853    0.0000 H   0  0  0  0  0  0  0  0  0  0  0  0
    8.5749    1.3653    0.0000 H   0  0  0  0  0  0  0  0  0  0  0  0
   10.3900    1.6753    0.0000 H   0  0  0  0  0  0  0  0  0  0  0  0
    2.4752    2.0164    0.0000 H   0  0  0  0  0  0  0  0  0  0  0  0
    1.3933    0.8107    0.0000 H   0  0  0  0  0  0  0  0  0  0  0  0
   11.7930    2.4853    0.0000 H   0  0  0  0  0  0  0  0  0  0  0  0
   13.5458   -0.7894    0.0000 H   0  0  0  0  0  0  0  0  0  0  0  0
   13.5458    2.5199    0.0000 H   0  0  0  0  0  0  0  0  0  0  0  0
   14.9948    0.0324    0.0000 H   0  0  0  0  0  0  0  0  0  0  0  0
   14.9948    1.6982    0.0000 H   0  0  0  0  0  0  0  0  0  0  0  0
  1 10  2  0  0  0  0
  2 10  1  0  0  0  0
  2 12  1  0  0  0  0
  2 18  1  0  0  0  0
  3  9  1  0  0  0  0
  3 11  1  0  0  0  0
  3 37  1  0  0  0  0
  4  5  1  0  0  0  0
  4  6  1  0  0  0  0
  4 28  1  0  0  0  0
  4 29  1  0  0  0  0
  5  7  1  0  0  0  0
  5 30  1  0  0  0  0
  5 31  1  0  0  0  0
  6  8  1  0  0  0  0
  6 11  2  0  0  0  0
  7 10  1  0  0  0  0
  7 32  1  0  0  0  0
  7 33  1  0  0  0  0
  8  9  1  0  0  0  0
  8 14  2  0  0  0  0
  9 15  2  0  0  0  0
 11 34  1  0  0  0  0
 12 13  1  0  0  0  0
 12 35  1  0  0  0  0
 12 36  1  0  0  0  0
 13 16  2  0  0  0  0
 13 20  1  0  0  0  0
 14 21  1  0  0  0  0
 14 38  1  0  0  0  0
 15 22  1  0  0  0  0
 15 39  1  0  0  0  0
 16 17  1  0  0  0  0
 16 40  1  0  0  0  0
 17 19  1  0  0  0  0
 17 24  2  0  0  0  0
 18 41  1  0  0  0  0
 18 42  1  0  0  0  0
 18 43  1  0  0  0  0
 19 23  1  0  0  0  0
 19 25  2  0  0  0  0
 20 23  2  0  0  0  0
 20 44  1  0  0  0  0
 21 22  2  0  0  0  0
 21 45  1  0  0  0  0
 22 46  1  0  0  0  0
 23 47  1  0  0  0  0
 24 26  1  0  0  0  0
 24 48  1  0  0  0  0
 25 27  1  0  0  0  0
 25 49  1  0  0  0  0
 26 27  2  0  0  0  0
 26 50  1  0  0  0  0
 27 51  1  0  0  0  0
M  END
> <PUBCHEM_COMPOUND_CID>
31282360

> <PUBCHEM_COMPOUND_CANONICALIZED>
1

> <PUBCHEM_CACTVS_COMPLEXITY>
493

> <PUBCHEM_CACTVS_HBOND_ACCEPTOR>
1

> <PUBCHEM_CACTVS_HBOND_DONOR>
1

> <PUBCHEM_CACTVS_ROTATABLE_BOND>
6

> <PUBCHEM_CACTVS_SUBSKEYS>
AAADceB7IAAAAAAAAAAAAAAAAAAAAWAAAAAwYMAAAAAAAFjB9AAAHgAQAAAADAjBngQ+wPPJkACoAzV3VACCgCAxAiAI2aE4ZJgIIPLAkZGEIAhglgDIyAcYiMCOwAACAAASAACAAAQAACQAAAAAAAAAAA==

> <PUBCHEM_IUPAC_OPENEYE_NAME>
4-(1H-indol-3-yl)-N-methyl-N-(2-naphthylmethyl)butanamide

> <PUBCHEM_IUPAC_CAS_NAME>
4-(1H-indol-3-yl)-N-methyl-N-(2-naphthalenylmethyl)butanamide

> <PUBCHEM_IUPAC_NAME>
4-(1H-indol-3-yl)-N-methyl-N-(naphthalen-2-ylmethyl)butanamide

> <PUBCHEM_IUPAC_SYSTEMATIC_NAME>
4-(1H-indol-3-yl)-N-methyl-N-(naphthalen-2-ylmethyl)butanamide

> <PUBCHEM_IUPAC_TRADITIONAL_NAME>
4-(1H-indol-3-yl)-N-methyl-N-(2-naphthylmethyl)butyramide

> <PUBCHEM_IUPAC_INCHI>
InChI=1S/C24H24N2O/c1-26(17-18-13-14-19-7-2-3-8-20(19)15-18)24(27)12-6-9-21-16-25-23-11-5-4-10-22(21)23/h2-5,7-8,10-11,13-16,25H,6,9,12,17H2,1H3

> <PUBCHEM_IUPAC_INCHIKEY>
SXSLENLGUBQGIS-UHFFFAOYSA-N

> <PUBCHEM_XLOGP3>
5

> <PUBCHEM_EXACT_MASS>
356.188863

> <PUBCHEM_MOLECULAR_FORMULA>
C24H24N2O

> <PUBCHEM_MOLECULAR_WEIGHT>
356.46016

> <PUBCHEM_OPENEYE_CAN_SMILES>
CN(CC1=CC2=CC=CC=C2C=C1)C(=O)CCCC3=CNC4=CC=CC=C43

> <PUBCHEM_OPENEYE_ISO_SMILES>
CN(CC1=CC2=CC=CC=C2C=C1)C(=O)CCCC3=CNC4=CC=CC=C43

> <PUBCHEM_CACTVS_TPSA>
36.1

> <PUBCHEM_MONOISOTOPIC_WEIGHT>
356.188863

> <PUBCHEM_TOTAL_CHARGE>
0

> <PUBCHEM_HEAVY_ATOM_COUNT>
27

> <PUBCHEM_ATOM_DEF_STEREO_COUNT>
0

> <PUBCHEM_ATOM_UDEF_STEREO_COUNT>
0

> <PUBCHEM_BOND_DEF_STEREO_COUNT>
0

> <PUBCHEM_BOND_UDEF_STEREO_COUNT>
0

> <PUBCHEM_ISOTOPIC_ATOM_COUNT>
0

> <PUBCHEM_COMPONENT_COUNT>
1

> <PUBCHEM_CACTVS_TAUTO_COUNT>
1

> <PUBCHEM_COORDINATE_TYPE>
1
5
255

> <PUBCHEM_BONDANNOTATIONS>
13  16  8
13  20  8
14  21  8
15  22  8
16  17  8
17  19  8
17  24  8
19  23  8
19  25  8
20  23  8
21  22  8
24  26  8
25  27  8
26  27  8
3  11  8
3  9  8
6  11  8
6  8  8
8  14  8
8  9  8
9  15  8

$$$$
