28875404
  -OEChem-05231305182D

 31 31  0     0  0  0  0  0  0999 V2000
    2.0000   -2.0185    0.0000 O   0  0  0  0  0  0  0  0  0  0  0  0
    4.5981    2.4815    0.0000 N   0  3  0  0  0  0  0  0  0  0  0  0
    3.7320    0.9815    0.0000 C   0  0  0  0  0  0  0  0  0  0  0  0
    3.7320    1.9815    0.0000 C   0  0  0  0  0  0  0  0  0  0  0  0
    3.7320   -0.0185    0.0000 C   0  0  0  0  0  0  0  0  0  0  0  0
    4.7320    0.9815    0.0000 C   0  0  0  0  0  0  0  0  0  0  0  0
    2.7320    0.9815    0.0000 C   0  0  0  0  0  0  0  0  0  0  0  0
    2.8660   -0.5185    0.0000 C   0  0  0  0  0  0  0  0  0  0  0  0
    4.5981   -0.5185    0.0000 C   0  0  0  0  0  0  0  0  0  0  0  0
    2.8660   -1.5185    0.0000 C   0  0  0  0  0  0  0  0  0  0  0  0
    4.5981   -1.5185    0.0000 C   0  0  0  0  0  0  0  0  0  0  0  0
    3.7320   -2.0185    0.0000 C   0  0  0  0  0  0  0  0  0  0  0  0
    2.0000   -3.0185    0.0000 C   0  0  0  0  0  0  0  0  0  0  0  0
    3.5200    2.5641    0.0000 H   0  0  0  0  0  0  0  0  0  0  0  0
    3.1215    1.8739    0.0000 H   0  0  0  0  0  0  0  0  0  0  0  0
    2.7320    1.6015    0.0000 H   0  0  0  0  0  0  0  0  0  0  0  0
    2.1120    0.9815    0.0000 H   0  0  0  0  0  0  0  0  0  0  0  0
    2.7320    0.3615    0.0000 H   0  0  0  0  0  0  0  0  0  0  0  0
    4.7320    0.3615    0.0000 H   0  0  0  0  0  0  0  0  0  0  0  0
    5.3520    0.9815    0.0000 H   0  0  0  0  0  0  0  0  0  0  0  0
    4.7320    1.6015    0.0000 H   0  0  0  0  0  0  0  0  0  0  0  0
    5.1350    2.7915    0.0000 H   0  0  0  0  0  0  0  0  0  0  0  0
    4.2881    3.0185    0.0000 H   0  0  0  0  0  0  0  0  0  0  0  0
    4.9081    1.9446    0.0000 H   0  0  0  0  0  0  0  0  0  0  0  0
    2.3291   -0.2085    0.0000 H   0  0  0  0  0  0  0  0  0  0  0  0
    5.1350   -0.2085    0.0000 H   0  0  0  0  0  0  0  0  0  0  0  0
    5.1350   -1.8285    0.0000 H   0  0  0  0  0  0  0  0  0  0  0  0
    3.7320   -2.6385    0.0000 H   0  0  0  0  0  0  0  0  0  0  0  0
    1.3800   -3.0185    0.0000 H   0  0  0  0  0  0  0  0  0  0  0  0
    2.0000   -3.6385    0.0000 H   0  0  0  0  0  0  0  0  0  0  0  0
    2.6200   -3.0185    0.0000 H   0  0  0  0  0  0  0  0  0  0  0  0
  1 10  1  0  0  0  0
  1 13  1  0  0  0  0
  2  4  1  0  0  0  0
  2 22  1  0  0  0  0
  2 23  1  0  0  0  0
  2 24  1  0  0  0  0
  3  4  1  0  0  0  0
  3  5  1  0  0  0  0
  3  6  1  0  0  0  0
  3  7  1  0  0  0  0
  4 14  1  0  0  0  0
  4 15  1  0  0  0  0
  5  8  2  0  0  0  0
  5  9  1  0  0  0  0
  6 19  1  0  0  0  0
  6 20  1  0  0  0  0
  6 21  1  0  0  0  0
  7 16  1  0  0  0  0
  7 17  1  0  0  0  0
  7 18  1  0  0  0  0
  8 10  1  0  0  0  0
  8 25  1  0  0  0  0
  9 11  2  0  0  0  0
  9 26  1  0  0  0  0
 10 12  2  0  0  0  0
 11 12  1  0  0  0  0
 11 27  1  0  0  0  0
 12 28  1  0  0  0  0
 13 29  1  0  0  0  0
 13 30  1  0  0  0  0
 13 31  1  0  0  0  0
M  CHG  1   2   1
M  END
> <PUBCHEM_COMPOUND_CID>
28875404

> <PUBCHEM_COMPOUND_CANONICALIZED>
1

> <PUBCHEM_CACTVS_COMPLEXITY>
156

> <PUBCHEM_CACTVS_HBOND_ACCEPTOR>
1

> <PUBCHEM_CACTVS_HBOND_DONOR>
1

> <PUBCHEM_CACTVS_ROTATABLE_BOND>
3

> <PUBCHEM_CACTVS_SUBSKEYS>
AAADceByIAAAAAAAAAAAAAAAAAAAAAAAAAAwAAAAAAAAAAABAAAAHgAQAAAADgTBmAYyBoBABACAAiBCAAACCAAgIAAIiIAGCIgMJiKEsRuAMCAkwBEIqAeQ0PAPgAABAAAAAAAAAAIAAAAAAAAAAAAAAA==

> <PUBCHEM_IUPAC_OPENEYE_NAME>
[2-(3-methoxyphenyl)-2-methyl-propyl]ammonium

> <PUBCHEM_IUPAC_CAS_NAME>
[2-(3-methoxyphenyl)-2-methylpropyl]ammonium

> <PUBCHEM_IUPAC_NAME>
[2-(3-methoxyphenyl)-2-methylpropyl]azanium

> <PUBCHEM_IUPAC_SYSTEMATIC_NAME>
[2-(3-methoxyphenyl)-2-methyl-propyl]azanium

> <PUBCHEM_IUPAC_TRADITIONAL_NAME>
[2-(3-methoxyphenyl)-2-methyl-propyl]ammonium

> <PUBCHEM_IUPAC_INCHI>
InChI=1S/C11H17NO/c1-11(2,8-12)9-5-4-6-10(7-9)13-3/h4-7H,8,12H2,1-3H3/p+1

> <PUBCHEM_IUPAC_INCHIKEY>
LEQBGWPHAHMWCW-UHFFFAOYSA-O

> <PUBCHEM_XLOGP3>
2.5

> <PUBCHEM_EXACT_MASS>
180.138839

> <PUBCHEM_MOLECULAR_FORMULA>
C11H18NO+

> <PUBCHEM_MOLECULAR_WEIGHT>
180.26672

> <PUBCHEM_OPENEYE_CAN_SMILES>
CC(C)(C[NH3+])C1=CC(=CC=C1)OC

> <PUBCHEM_OPENEYE_ISO_SMILES>
CC(C)(C[NH3+])C1=CC(=CC=C1)OC

> <PUBCHEM_CACTVS_TPSA>
36.9

> <PUBCHEM_MONOISOTOPIC_WEIGHT>
180.138839

> <PUBCHEM_TOTAL_CHARGE>
1

> <PUBCHEM_HEAVY_ATOM_COUNT>
13

> <PUBCHEM_ATOM_DEF_STEREO_COUNT>
0

> <PUBCHEM_ATOM_UDEF_STEREO_COUNT>
0

> <PUBCHEM_BOND_DEF_STEREO_COUNT>
0

> <PUBCHEM_BOND_UDEF_STEREO_COUNT>
0

> <PUBCHEM_ISOTOPIC_ATOM_COUNT>
0

> <PUBCHEM_COMPONENT_COUNT>
1

> <PUBCHEM_CACTVS_TAUTO_COUNT>
1

> <PUBCHEM_COORDINATE_TYPE>
1
5
255

> <PUBCHEM_BONDANNOTATIONS>
10  12  8
11  12  8
5  8  8
5  9  8
8  10  8
9  11  8

$$$$
28879190
  -OEChem-05231305182D

 27 28  0     0  0  0  0  0  0999 V2000
    2.0000   -3.2500    0.0000 I   0  0  0  0  0  0  0  0  0  0  0  0
    3.7320   -0.2500    0.0000 N   0  0  0  0  0  0  0  0  0  0  0  0
    4.5981    0.2500    0.0000 C   0  0  0  0  0  0  0  0  0  0  0  0
    4.5981    1.2500    0.0000 C   0  0  0  0  0  0  0  0  0  0  0  0
    3.7320   -1.2500    0.0000 C   0  0  0  0  0  0  0  0  0  0  0  0
    5.4641    1.7500    0.0000 C   0  0  0  0  0  0  0  0  0  0  0  0
    3.7320    1.7500    0.0000 C   0  0  0  0  0  0  0  0  0  0  0  0
    2.8660   -1.7500    0.0000 C   0  0  0  0  0  0  0  0  0  0  0  0
    4.5981   -1.7500    0.0000 C   0  0  0  0  0  0  0  0  0  0  0  0
    5.4641    2.7500    0.0000 C   0  0  0  0  0  0  0  0  0  0  0  0
    3.7320    2.7500    0.0000 C   0  0  0  0  0  0  0  0  0  0  0  0
    2.8660   -2.7500    0.0000 C   0  0  0  0  0  0  0  0  0  0  0  0
    4.5981   -2.7500    0.0000 C   0  0  0  0  0  0  0  0  0  0  0  0
    4.5981    3.2500    0.0000 C   0  0  0  0  0  0  0  0  0  0  0  0
    3.7320   -3.2500    0.0000 C   0  0  0  0  0  0  0  0  0  0  0  0
    4.8101   -0.3326    0.0000 H   0  0  0  0  0  0  0  0  0  0  0  0
    5.2087    0.3577    0.0000 H   0  0  0  0  0  0  0  0  0  0  0  0
    3.1951    0.0600    0.0000 H   0  0  0  0  0  0  0  0  0  0  0  0
    6.0010    1.4400    0.0000 H   0  0  0  0  0  0  0  0  0  0  0  0
    3.1951    1.4400    0.0000 H   0  0  0  0  0  0  0  0  0  0  0  0
    2.3291   -1.4400    0.0000 H   0  0  0  0  0  0  0  0  0  0  0  0
    5.1350   -1.4400    0.0000 H   0  0  0  0  0  0  0  0  0  0  0  0
    6.0010    3.0600    0.0000 H   0  0  0  0  0  0  0  0  0  0  0  0
    3.1951    3.0600    0.0000 H   0  0  0  0  0  0  0  0  0  0  0  0
    5.1350   -3.0600    0.0000 H   0  0  0  0  0  0  0  0  0  0  0  0
    4.5981    3.8700    0.0000 H   0  0  0  0  0  0  0  0  0  0  0  0
    3.7320   -3.8700    0.0000 H   0  0  0  0  0  0  0  0  0  0  0  0
  1 12  1  0  0  0  0
  2  3  1  0  0  0  0
  2  5  1  0  0  0  0
  2 18  1  0  0  0  0
  3  4  1  0  0  0  0
  3 16  1  0  0  0  0
  3 17  1  0  0  0  0
  4  6  2  0  0  0  0
  4  7  1  0  0  0  0
  5  8  2  0  0  0  0
  5  9  1  0  0  0  0
  6 10  1  0  0  0  0
  6 19  1  0  0  0  0
  7 11  2  0  0  0  0
  7 20  1  0  0  0  0
  8 12  1  0  0  0  0
  8 21  1  0  0  0  0
  9 13  2  0  0  0  0
  9 22  1  0  0  0  0
 10 14  2  0  0  0  0
 10 23  1  0  0  0  0
 11 14  1  0  0  0  0
 11 24  1  0  0  0  0
 12 15  2  0  0  0  0
 13 15  1  0  0  0  0
 13 25  1  0  0  0  0
 14 26  1  0  0  0  0
 15 27  1  0  0  0  0
M  END
> <PUBCHEM_COMPOUND_CID>
28879190

> <PUBCHEM_COMPOUND_CANONICALIZED>
1

> <PUBCHEM_CACTVS_COMPLEXITY>
177

> <PUBCHEM_CACTVS_HBOND_ACCEPTOR>
1

> <PUBCHEM_CACTVS_HBOND_DONOR>
1

> <PUBCHEM_CACTVS_ROTATABLE_BOND>
3

> <PUBCHEM_CACTVS_SUBSKEYS>
AAADccByAAAAAgAAAAAAAAAAAAAAAAAAAAAwYAAAAAAAAAABQAAAHAAwAAAADAjDGAQwwILAAACAAiRCQACCAAAhAgAIiIAIZIgIICLAkZGEIAhgkADIyAcQgAAOAAAAAAAAAAAAAAAAAAAAAAAAAAAAAA==

> <PUBCHEM_IUPAC_OPENEYE_NAME>
N-benzyl-3-iodo-aniline

> <PUBCHEM_IUPAC_CAS_NAME>
3-iodo-N-(phenylmethyl)aniline

> <PUBCHEM_IUPAC_NAME>
N-benzyl-3-iodoaniline

> <PUBCHEM_IUPAC_SYSTEMATIC_NAME>
3-iodanyl-N-(phenylmethyl)aniline

> <PUBCHEM_IUPAC_TRADITIONAL_NAME>
benzyl-(3-iodophenyl)amine

> <PUBCHEM_IUPAC_INCHI>
InChI=1S/C13H12IN/c14-12-7-4-8-13(9-12)15-10-11-5-2-1-3-6-11/h1-9,15H,10H2

> <PUBCHEM_IUPAC_INCHIKEY>
PJIHBBXPQNLKGV-UHFFFAOYSA-N

> <PUBCHEM_XLOGP3>
3.8

> <PUBCHEM_EXACT_MASS>
309.001447

> <PUBCHEM_MOLECULAR_FORMULA>
C13H12IN

> <PUBCHEM_MOLECULAR_WEIGHT>
309.14555

> <PUBCHEM_OPENEYE_CAN_SMILES>
C1=CC=C(C=C1)CNC2=CC(=CC=C2)I

> <PUBCHEM_OPENEYE_ISO_SMILES>
C1=CC=C(C=C1)CNC2=CC(=CC=C2)I

> <PUBCHEM_CACTVS_TPSA>
12

> <PUBCHEM_MONOISOTOPIC_WEIGHT>
309.001447

> <PUBCHEM_TOTAL_CHARGE>
0

> <PUBCHEM_HEAVY_ATOM_COUNT>
15

> <PUBCHEM_ATOM_DEF_STEREO_COUNT>
0

> <PUBCHEM_ATOM_UDEF_STEREO_COUNT>
0

> <PUBCHEM_BOND_DEF_STEREO_COUNT>
0

> <PUBCHEM_BOND_UDEF_STEREO_COUNT>
0

> <PUBCHEM_ISOTOPIC_ATOM_COUNT>
0

> <PUBCHEM_COMPONENT_COUNT>
1

> <PUBCHEM_CACTVS_TAUTO_COUNT>
1

> <PUBCHEM_COORDINATE_TYPE>
1
5
255

> <PUBCHEM_BONDANNOTATIONS>
10  14  8
11  14  8
12  15  8
13  15  8
4  6  8
4  7  8
5  8  8
5  9  8
6  10  8
7  11  8
8  12  8
9  13  8

$$$$
28881798
  -OEChem-05231305182D

 22 22  0     1  0  0  0  0  0999 V2000
    2.0000   -2.5000    0.0000 I   0  0  0  0  0  0  0  0  0  0  0  0
    5.4641    2.5000    0.0000 Cl  0  0  0  0  0  0  0  0  0  0  0  0
    5.4641    0.5000    0.0000 O   0  0  0  0  0  0  0  0  0  0  0  0
    3.7320    0.5000    0.0000 N   0  0  0  0  0  0  0  0  0  0  0  0
    3.7320   -0.5000    0.0000 C   0  0  0  0  0  0  0  0  0  0  0  0
    4.5981    2.0000    0.0000 C   0  0  1  0  0  0  0  0  0  0  0  0
    4.5981    1.0000    0.0000 C   0  0  0  0  0  0  0  0  0  0  0  0
    2.8660   -1.0000    0.0000 C   0  0  0  0  0  0  0  0  0  0  0  0
    4.5981   -1.0000    0.0000 C   0  0  0  0  0  0  0  0  0  0  0  0
    3.7320    2.5000    0.0000 C   0  0  0  0  0  0  0  0  0  0  0  0
    2.8660   -2.0000    0.0000 C   0  0  0  0  0  0  0  0  0  0  0  0
    4.5981   -2.0000    0.0000 C   0  0  0  0  0  0  0  0  0  0  0  0
    3.7320   -2.5000    0.0000 C   0  0  0  0  0  0  0  0  0  0  0  0
    4.5981    2.6200    0.0000 H   0  0  0  0  0  0  0  0  0  0  0  0
    3.1951    0.8100    0.0000 H   0  0  0  0  0  0  0  0  0  0  0  0
    2.3291   -0.6900    0.0000 H   0  0  0  0  0  0  0  0  0  0  0  0
    5.1350   -0.6900    0.0000 H   0  0  0  0  0  0  0  0  0  0  0  0
    4.0420    3.0369    0.0000 H   0  0  0  0  0  0  0  0  0  0  0  0
    3.1951    2.8100    0.0000 H   0  0  0  0  0  0  0  0  0  0  0  0
    3.4220    1.9631    0.0000 H   0  0  0  0  0  0  0  0  0  0  0  0
    5.1350   -2.3100    0.0000 H   0  0  0  0  0  0  0  0  0  0  0  0
    3.7320   -3.1200    0.0000 H   0  0  0  0  0  0  0  0  0  0  0  0
  1 11  1  0  0  0  0
  6  2  1  1  0  0  0
  3  7  2  0  0  0  0
  4  5  1  0  0  0  0
  4  7  1  0  0  0  0
  4 15  1  0  0  0  0
  5  8  2  0  0  0  0
  5  9  1  0  0  0  0
  6  7  1  0  0  0  0
  6 10  1  0  0  0  0
  6 14  1  0  0  0  0
  8 11  1  0  0  0  0
  8 16  1  0  0  0  0
  9 12  2  0  0  0  0
  9 17  1  0  0  0  0
 10 18  1  0  0  0  0
 10 19  1  0  0  0  0
 10 20  1  0  0  0  0
 11 13  2  0  0  0  0
 12 13  1  0  0  0  0
 12 21  1  0  0  0  0
 13 22  1  0  0  0  0
M  END
> <PUBCHEM_COMPOUND_CID>
28881798

> <PUBCHEM_COMPOUND_CANONICALIZED>
1

> <PUBCHEM_CACTVS_COMPLEXITY>
189

> <PUBCHEM_CACTVS_HBOND_ACCEPTOR>
1

> <PUBCHEM_CACTVS_HBOND_DONOR>
1

> <PUBCHEM_CACTVS_ROTATABLE_BOND>
2

> <PUBCHEM_CACTVS_SUBSKEYS>
AAADccByIAAEAgAAAAAAAAAAAAAAAAAAAAAwAAAAAAAAAAABAAAAHgIwAAAACAuDkEAywILAAACIACVSUACCAAAhAgAIiAEAZIhIICLAkZHEIAhglADIyAcQAAAAAAAAAAAAAAAAAAAAAAAAAAAAAAAAAA==

> <PUBCHEM_IUPAC_OPENEYE_NAME>
(2R)-2-chloro-N-(3-iodophenyl)propanamide

> <PUBCHEM_IUPAC_CAS_NAME>
(2R)-2-chloro-N-(3-iodophenyl)propanamide

> <PUBCHEM_IUPAC_NAME>
(2R)-2-chloro-N-(3-iodophenyl)propanamide

> <PUBCHEM_IUPAC_SYSTEMATIC_NAME>
(2R)-2-chloranyl-N-(3-iodanylphenyl)propanamide

> <PUBCHEM_IUPAC_TRADITIONAL_NAME>
(2R)-2-chloro-N-(3-iodophenyl)propionamide

> <PUBCHEM_IUPAC_INCHI>
InChI=1S/C9H9ClINO/c1-6(10)9(13)12-8-4-2-3-7(11)5-8/h2-6H,1H3,(H,12,13)/t6-/m1/s1

> <PUBCHEM_IUPAC_INCHIKEY>
YNVPHKCTBAAVRT-ZCFIWIBFSA-N

> <PUBCHEM_XLOGP3>
3.7

> <PUBCHEM_EXACT_MASS>
308.94174

> <PUBCHEM_MOLECULAR_FORMULA>
C9H9ClINO

> <PUBCHEM_MOLECULAR_WEIGHT>
309.53133

> <PUBCHEM_OPENEYE_CAN_SMILES>
CC(C(=O)NC1=CC(=CC=C1)I)Cl

> <PUBCHEM_OPENEYE_ISO_SMILES>
C[C@H](C(=O)NC1=CC(=CC=C1)I)Cl

> <PUBCHEM_CACTVS_TPSA>
29.1

> <PUBCHEM_MONOISOTOPIC_WEIGHT>
308.94174

> <PUBCHEM_TOTAL_CHARGE>
0

> <PUBCHEM_HEAVY_ATOM_COUNT>
13

> <PUBCHEM_ATOM_DEF_STEREO_COUNT>
1

> <PUBCHEM_ATOM_UDEF_STEREO_COUNT>
0

> <PUBCHEM_BOND_DEF_STEREO_COUNT>
0

> <PUBCHEM_BOND_UDEF_STEREO_COUNT>
0

> <PUBCHEM_ISOTOPIC_ATOM_COUNT>
0

> <PUBCHEM_COMPONENT_COUNT>
1

> <PUBCHEM_CACTVS_TAUTO_COUNT>
3

> <PUBCHEM_COORDINATE_TYPE>
1
5
255

> <PUBCHEM_BONDANNOTATIONS>
11  13  8
12  13  8
6  2  5
5  8  8
5  9  8
8  11  8
9  12  8

$$$$
28881799
  -OEChem-05231305182D

 22 22  0     1  0  0  0  0  0999 V2000
    2.0000   -2.5000    0.0000 I   0  0  0  0  0  0  0  0  0  0  0  0
    5.4641    2.5000    0.0000 Cl  0  0  0  0  0  0  0  0  0  0  0  0
    5.4641    0.5000    0.0000 O   0  0  0  0  0  0  0  0  0  0  0  0
    3.7320    0.5000    0.0000 N   0  0  0  0  0  0  0  0  0  0  0  0
    3.7320   -0.5000    0.0000 C   0  0  0  0  0  0  0  0  0  0  0  0
    4.5981    2.0000    0.0000 C   0  0  2  0  0  0  0  0  0  0  0  0
    4.5981    1.0000    0.0000 C   0  0  0  0  0  0  0  0  0  0  0  0
    2.8660   -1.0000    0.0000 C   0  0  0  0  0  0  0  0  0  0  0  0
    4.5981   -1.0000    0.0000 C   0  0  0  0  0  0  0  0  0  0  0  0
    3.7320    2.5000    0.0000 C   0  0  0  0  0  0  0  0  0  0  0  0
    2.8660   -2.0000    0.0000 C   0  0  0  0  0  0  0  0  0  0  0  0
    4.5981   -2.0000    0.0000 C   0  0  0  0  0  0  0  0  0  0  0  0
    3.7320   -2.5000    0.0000 C   0  0  0  0  0  0  0  0  0  0  0  0
    4.5981    2.6200    0.0000 H   0  0  0  0  0  0  0  0  0  0  0  0
    3.1951    0.8100    0.0000 H   0  0  0  0  0  0  0  0  0  0  0  0
    2.3291   -0.6900    0.0000 H   0  0  0  0  0  0  0  0  0  0  0  0
    5.1350   -0.6900    0.0000 H   0  0  0  0  0  0  0  0  0  0  0  0
    4.0420    3.0369    0.0000 H   0  0  0  0  0  0  0  0  0  0  0  0
    3.1951    2.8100    0.0000 H   0  0  0  0  0  0  0  0  0  0  0  0
    3.4220    1.9631    0.0000 H   0  0  0  0  0  0  0  0  0  0  0  0
    5.1350   -2.3100    0.0000 H   0  0  0  0  0  0  0  0  0  0  0  0
    3.7320   -3.1200    0.0000 H   0  0  0  0  0  0  0  0  0  0  0  0
  1 11  1  0  0  0  0
  6  2  1  6  0  0  0
  3  7  2  0  0  0  0
  4  5  1  0  0  0  0
  4  7  1  0  0  0  0
  4 15  1  0  0  0  0
  5  8  2  0  0  0  0
  5  9  1  0  0  0  0
  6  7  1  0  0  0  0
  6 10  1  0  0  0  0
  6 14  1  0  0  0  0
  8 11  1  0  0  0  0
  8 16  1  0  0  0  0
  9 12  2  0  0  0  0
  9 17  1  0  0  0  0
 10 18  1  0  0  0  0
 10 19  1  0  0  0  0
 10 20  1  0  0  0  0
 11 13  2  0  0  0  0
 12 13  1  0  0  0  0
 12 21  1  0  0  0  0
 13 22  1  0  0  0  0
M  END
> <PUBCHEM_COMPOUND_CID>
28881799

> <PUBCHEM_COMPOUND_CANONICALIZED>
1

> <PUBCHEM_CACTVS_COMPLEXITY>
189

> <PUBCHEM_CACTVS_HBOND_ACCEPTOR>
1

> <PUBCHEM_CACTVS_HBOND_DONOR>
1

> <PUBCHEM_CACTVS_ROTATABLE_BOND>
2

> <PUBCHEM_CACTVS_SUBSKEYS>
AAADccByIAAEAgAAAAAAAAAAAAAAAAAAAAAwAAAAAAAAAAABAAAAHgIwAAAACAuDkEAywILAAACIACVSUACCAAAhAgAIiAEAZIhIICLAkZHEIAhglADIyAcQAAAAAAAAAAAAAAAAAAAAAAAAAAAAAAAAAA==

> <PUBCHEM_IUPAC_OPENEYE_NAME>
(2S)-2-chloro-N-(3-iodophenyl)propanamide

> <PUBCHEM_IUPAC_CAS_NAME>
(2S)-2-chloro-N-(3-iodophenyl)propanamide

> <PUBCHEM_IUPAC_NAME>
(2S)-2-chloro-N-(3-iodophenyl)propanamide

> <PUBCHEM_IUPAC_SYSTEMATIC_NAME>
(2S)-2-chloranyl-N-(3-iodanylphenyl)propanamide

> <PUBCHEM_IUPAC_TRADITIONAL_NAME>
(2S)-2-chloro-N-(3-iodophenyl)propionamide

> <PUBCHEM_IUPAC_INCHI>
InChI=1S/C9H9ClINO/c1-6(10)9(13)12-8-4-2-3-7(11)5-8/h2-6H,1H3,(H,12,13)/t6-/m0/s1

> <PUBCHEM_IUPAC_INCHIKEY>
YNVPHKCTBAAVRT-LURJTMIESA-N

> <PUBCHEM_XLOGP3>
3.7

> <PUBCHEM_EXACT_MASS>
308.94174

> <PUBCHEM_MOLECULAR_FORMULA>
C9H9ClINO

> <PUBCHEM_MOLECULAR_WEIGHT>
309.53133

> <PUBCHEM_OPENEYE_CAN_SMILES>
CC(C(=O)NC1=CC(=CC=C1)I)Cl

> <PUBCHEM_OPENEYE_ISO_SMILES>
C[C@@H](C(=O)NC1=CC(=CC=C1)I)Cl

> <PUBCHEM_CACTVS_TPSA>
29.1

> <PUBCHEM_MONOISOTOPIC_WEIGHT>
308.94174

> <PUBCHEM_TOTAL_CHARGE>
0

> <PUBCHEM_HEAVY_ATOM_COUNT>
13

> <PUBCHEM_ATOM_DEF_STEREO_COUNT>
1

> <PUBCHEM_ATOM_UDEF_STEREO_COUNT>
0

> <PUBCHEM_BOND_DEF_STEREO_COUNT>
0

> <PUBCHEM_BOND_UDEF_STEREO_COUNT>
0

> <PUBCHEM_ISOTOPIC_ATOM_COUNT>
0

> <PUBCHEM_COMPONENT_COUNT>
1

> <PUBCHEM_CACTVS_TAUTO_COUNT>
3

> <PUBCHEM_COORDINATE_TYPE>
1
5
255

> <PUBCHEM_BONDANNOTATIONS>
11  13  8
12  13  8
6  2  6
5  8  8
5  9  8
8  11  8
9  12  8

$$$$
28887905
  -OEChem-05231305182D

 47 50  0     1  0  0  0  0  0999 V2000
    6.1958    4.1132    0.0000 N   0  0  0  0  0  0  0  0  0  0  0  0
    6.2781   -0.2264    0.0000 N   0  3  0  0  0  0  0  0  0  0  0  0
    4.6783   -3.9431    0.0000 N   0  0  0  0  0  0  0  0  0  0  0  0
    7.4003    3.8738    0.0000 C   0  0  1  0  0  0  0  0  0  0  0  0
    7.8528    2.9820    0.0000 C   0  0  2  0  0  0  0  0  0  0  0  0
    6.5888    0.7241    0.0000 C   0  0  0  0  0  0  0  0  0  0  0  0
    6.0024    1.5341    0.0000 C   0  0  0  0  0  0  0  0  0  0  0  0
    7.5404    1.0315    0.0000 C   0  0  0  0  0  0  0  0  0  0  0  0
    9.2706    4.5325    0.0000 C   0  0  0  0  0  0  0  0  0  0  0  0
    9.7230    3.6407    0.0000 C   0  0  0  0  0  0  0  0  0  0  0  0
    5.2453    4.4239    0.0000 C   0  0  0  0  0  0  0  0  0  0  0  0
    5.9674   -1.1769    0.0000 C   0  0  0  0  0  0  0  0  0  0  0  0
    4.9889   -1.3832    0.0000 C   0  0  0  0  0  0  0  0  0  0  0  0
    4.6783   -2.3337    0.0000 C   0  0  0  0  0  0  0  0  0  0  0  0
    3.7320   -2.6384    0.0000 C   0  0  0  0  0  0  0  0  0  0  0  0
    5.2619   -3.1384    0.0000 C   0  0  0  0  0  0  0  0  0  0  0  0
    3.7320   -3.6384    0.0000 C   0  0  0  0  0  0  0  0  0  0  0  0
    2.8660   -2.1384    0.0000 C   0  0  0  0  0  0  0  0  0  0  0  0
    2.8660   -4.1384    0.0000 C   0  0  0  0  0  0  0  0  0  0  0  0
    2.0000   -2.6384    0.0000 C   0  0  0  0  0  0  0  0  0  0  0  0
    2.0000   -3.6384    0.0000 C   0  0  0  0  0  0  0  0  0  0  0  0
    7.0157    4.6318    0.0000 H   0  0  0  0  0  0  0  0  0  0  0  0
    8.2373    2.2240    0.0000 H   0  0  0  0  0  0  0  0  0  0  0  0
    5.9762    0.6282    0.0000 H   0  0  0  0  0  0  0  0  0  0  0  0
    5.5179    1.9210    0.0000 H   0  0  0  0  0  0  0  0  0  0  0  0
    5.5538    1.1062    0.0000 H   0  0  0  0  0  0  0  0  0  0  0  0
    7.6363    0.4189    0.0000 H   0  0  0  0  0  0  0  0  0  0  0  0
    8.1604    1.0304    0.0000 H   0  0  0  0  0  0  0  0  0  0  0  0
    9.8352    4.7886    0.0000 H   0  0  0  0  0  0  0  0  0  0  0  0
    9.0393    5.1077    0.0000 H   0  0  0  0  0  0  0  0  0  0  0  0
    9.9543    3.0654    0.0000 H   0  0  0  0  0  0  0  0  0  0  0  0
   10.2877    3.8968    0.0000 H   0  0  0  0  0  0  0  0  0  0  0  0
    6.8674   -0.4190    0.0000 H   0  0  0  0  0  0  0  0  0  0  0  0
    5.6888   -0.0338    0.0000 H   0  0  0  0  0  0  0  0  0  0  0  0
    5.4379    5.0132    0.0000 H   0  0  0  0  0  0  0  0  0  0  0  0
    4.6560    4.6165    0.0000 H   0  0  0  0  0  0  0  0  0  0  0  0
    5.0527    3.8346    0.0000 H   0  0  0  0  0  0  0  0  0  0  0  0
    5.9880   -1.7966    0.0000 H   0  0  0  0  0  0  0  0  0  0  0  0
    6.5812   -1.2643    0.0000 H   0  0  0  0  0  0  0  0  0  0  0  0
    4.9684   -0.7635    0.0000 H   0  0  0  0  0  0  0  0  0  0  0  0
    4.3751   -1.2958    0.0000 H   0  0  0  0  0  0  0  0  0  0  0  0
    5.8819   -3.1384    0.0000 H   0  0  0  0  0  0  0  0  0  0  0  0
    4.8709   -4.5325    0.0000 H   0  0  0  0  0  0  0  0  0  0  0  0
    2.8660   -1.5184    0.0000 H   0  0  0  0  0  0  0  0  0  0  0  0
    2.8660   -4.7584    0.0000 H   0  0  0  0  0  0  0  0  0  0  0  0
    1.4631   -2.3284    0.0000 H   0  0  0  0  0  0  0  0  0  0  0  0
    1.4631   -3.9484    0.0000 H   0  0  0  0  0  0  0  0  0  0  0  0
  1  4  1  0  0  0  0
  1  5  1  0  0  0  0
  1 11  1  0  0  0  0
  2  6  1  0  0  0  0
  2 12  1  0  0  0  0
  2 33  1  0  0  0  0
  2 34  1  0  0  0  0
  3 16  1  0  0  0  0
  3 17  1  0  0  0  0
  3 43  1  0  0  0  0
  4  7  1  0  0  0  0
  4  9  1  0  0  0  0
  4 22  1  1  0  0  0
  5  8  1  0  0  0  0
  5 10  1  0  0  0  0
  5 23  1  6  0  0  0
  6  7  1  0  0  0  0
  6  8  1  0  0  0  0
  6 24  1  0  0  0  0
  7 25  1  0  0  0  0
  7 26  1  0  0  0  0
  8 27  1  0  0  0  0
  8 28  1  0  0  0  0
  9 10  1  0  0  0  0
  9 29  1  0  0  0  0
  9 30  1  0  0  0  0
 10 31  1  0  0  0  0
 10 32  1  0  0  0  0
 11 35  1  0  0  0  0
 11 36  1  0  0  0  0
 11 37  1  0  0  0  0
 12 13  1  0  0  0  0
 12 38  1  0  0  0  0
 12 39  1  0  0  0  0
 13 14  1  0  0  0  0
 13 40  1  0  0  0  0
 13 41  1  0  0  0  0
 14 15  1  0  0  0  0
 14 16  2  0  0  0  0
 15 17  1  0  0  0  0
 15 18  2  0  0  0  0
 16 42  1  0  0  0  0
 17 19  2  0  0  0  0
 18 20  1  0  0  0  0
 18 44  1  0  0  0  0
 19 21  1  0  0  0  0
 19 45  1  0  0  0  0
 20 21  2  0  0  0  0
 20 46  1  0  0  0  0
 21 47  1  0  0  0  0
M  CHG  1   2   1
M  END
> <PUBCHEM_COMPOUND_CID>
28887905

> <PUBCHEM_COMPOUND_CANONICALIZED>
1

> <PUBCHEM_CACTVS_COMPLEXITY>
344

> <PUBCHEM_CACTVS_HBOND_ACCEPTOR>
1

> <PUBCHEM_CACTVS_HBOND_DONOR>
2

> <PUBCHEM_CACTVS_ROTATABLE_BOND>
4

> <PUBCHEM_CACTVS_SUBSKEYS>
AAADceB7AAAAAAAAAAAAAAAAAAAAAWLAAAA8QAAABgAAAFgB8AAAHAAQAAAADCjBHgQ+wPPJkACgAzRnRACCgCAxAiAI2aA4ZJgIIOLA0ZGEIAhgkADIyAcQgMAOgAAAAAACAAAAAAAAAAQAAAAAAAAAAA==

> <PUBCHEM_IUPAC_OPENEYE_NAME>
2-(1H-indol-3-yl)ethyl-[(1R,5S)-8-methyl-8-azabicyclo[3.2.1]octan-3-yl]ammonium

> <PUBCHEM_IUPAC_CAS_NAME>
2-(1H-indol-3-yl)ethyl-[(1R,5S)-8-methyl-8-azabicyclo[3.2.1]octan-3-yl]ammonium

> <PUBCHEM_IUPAC_NAME>
2-(1H-indol-3-yl)ethyl-[(1R,5S)-8-methyl-8-azabicyclo[3.2.1]octan-3-yl]azanium

> <PUBCHEM_IUPAC_SYSTEMATIC_NAME>
2-(1H-indol-3-yl)ethyl-[(1R,5S)-8-methyl-8-azabicyclo[3.2.1]octan-3-yl]azanium

> <PUBCHEM_IUPAC_TRADITIONAL_NAME>
2-(1H-indol-3-yl)ethyl-[(1R,5S)-8-methyl-8-azabicyclo[3.2.1]octan-3-yl]ammonium

> <PUBCHEM_IUPAC_INCHI>
InChI=1S/C18H25N3/c1-21-15-6-7-16(21)11-14(10-15)19-9-8-13-12-20-18-5-3-2-4-17(13)18/h2-5,12,14-16,19-20H,6-11H2,1H3/p+1/t14?,15-,16+

> <PUBCHEM_IUPAC_INCHIKEY>
WQZLLTASKGENRF-MQVJKMGUSA-O

> <PUBCHEM_XLOGP3>
3.3

> <PUBCHEM_EXACT_MASS>
284.212673

> <PUBCHEM_MOLECULAR_FORMULA>
C18H26N3+

> <PUBCHEM_MOLECULAR_WEIGHT>
284.41914

> <PUBCHEM_OPENEYE_CAN_SMILES>
CN1C2CCC1CC(C2)[NH2+]CCC3=CNC4=CC=CC=C43

> <PUBCHEM_OPENEYE_ISO_SMILES>
CN1[C@@H]2CC[C@H]1CC(C2)[NH2+]CCC3=CNC4=CC=CC=C43

> <PUBCHEM_CACTVS_TPSA>
35.6

> <PUBCHEM_MONOISOTOPIC_WEIGHT>
284.212673

> <PUBCHEM_TOTAL_CHARGE>
1

> <PUBCHEM_HEAVY_ATOM_COUNT>
21

> <PUBCHEM_ATOM_DEF_STEREO_COUNT>
2

> <PUBCHEM_ATOM_UDEF_STEREO_COUNT>
0

> <PUBCHEM_BOND_DEF_STEREO_COUNT>
0

> <PUBCHEM_BOND_UDEF_STEREO_COUNT>
0

> <PUBCHEM_ISOTOPIC_ATOM_COUNT>
0

> <PUBCHEM_COMPONENT_COUNT>
1

> <PUBCHEM_CACTVS_TAUTO_COUNT>
1

> <PUBCHEM_COORDINATE_TYPE>
1
5
255

> <PUBCHEM_BONDANNOTATIONS>
14  15  8
14  16  8
15  17  8
15  18  8
17  19  8
18  20  8
19  21  8
20  21  8
3  16  8
3  17  8
4  22  5
5  23  6

$$$$
28887943
  -OEChem-05231305182D

 24 25  0     0  0  0  0  0  0999 V2000
    9.1279   -1.5630    0.0000 Cl  0  0  0  0  0  0  0  0  0  0  0  0
    2.0000    1.1690    0.0000 Cl  0  0  0  0  0  0  0  0  0  0  0  0
    5.5443    0.9737    0.0000 N   0  0  0  0  0  0  0  0  0  0  0  0
    5.5443   -0.6357    0.0000 N   0  0  0  0  0  0  0  0  0  0  0  0
    7.1279    0.1690    0.0000 C   0  0  0  0  0  0  0  0  0  0  0  0
    6.1279    0.1690    0.0000 C   0  0  0  0  0  0  0  0  0  0  0  0
    7.6279   -0.6970    0.0000 C   0  0  0  0  0  0  0  0  0  0  0  0
    4.5981    0.6690    0.0000 C   0  0  0  0  0  0  0  0  0  0  0  0
    4.5981   -0.3310    0.0000 C   0  0  0  0  0  0  0  0  0  0  0  0
    8.6279   -0.6970    0.0000 C   0  0  0  0  0  0  0  0  0  0  0  0
    3.7320    1.1690    0.0000 C   0  0  0  0  0  0  0  0  0  0  0  0
    3.7320   -0.8310    0.0000 C   0  0  0  0  0  0  0  0  0  0  0  0
    2.8660    0.6690    0.0000 C   0  0  0  0  0  0  0  0  0  0  0  0
    2.8660   -0.3310    0.0000 C   0  0  0  0  0  0  0  0  0  0  0  0
    7.7105    0.3810    0.0000 H   0  0  0  0  0  0  0  0  0  0  0  0
    7.0202    0.7796    0.0000 H   0  0  0  0  0  0  0  0  0  0  0  0
    7.0453   -0.9091    0.0000 H   0  0  0  0  0  0  0  0  0  0  0  0
    7.7356   -1.3076    0.0000 H   0  0  0  0  0  0  0  0  0  0  0  0
    5.7369    1.5630    0.0000 H   0  0  0  0  0  0  0  0  0  0  0  0
    9.2105   -0.4850    0.0000 H   0  0  0  0  0  0  0  0  0  0  0  0
    8.5202   -0.0864    0.0000 H   0  0  0  0  0  0  0  0  0  0  0  0
    3.7320    1.7890    0.0000 H   0  0  0  0  0  0  0  0  0  0  0  0
    3.7320   -1.4510    0.0000 H   0  0  0  0  0  0  0  0  0  0  0  0
    2.3291   -0.6410    0.0000 H   0  0  0  0  0  0  0  0  0  0  0  0
  1 10  1  0  0  0  0
  2 13  1  0  0  0  0
  3  6  1  0  0  0  0
  3  8  1  0  0  0  0
  3 19  1  0  0  0  0
  4  6  2  0  0  0  0
  4  9  1  0  0  0  0
  5  6  1  0  0  0  0
  5  7  1  0  0  0  0
  5 15  1  0  0  0  0
  5 16  1  0  0  0  0
  7 10  1  0  0  0  0
  7 17  1  0  0  0  0
  7 18  1  0  0  0  0
  8  9  2  0  0  0  0
  8 11  1  0  0  0  0
  9 12  1  0  0  0  0
 10 20  1  0  0  0  0
 10 21  1  0  0  0  0
 11 13  2  0  0  0  0
 11 22  1  0  0  0  0
 12 14  2  0  0  0  0
 12 23  1  0  0  0  0
 13 14  1  0  0  0  0
 14 24  1  0  0  0  0
M  END
> <PUBCHEM_COMPOUND_CID>
28887943

> <PUBCHEM_COMPOUND_CANONICALIZED>
1

> <PUBCHEM_CACTVS_COMPLEXITY>
189

> <PUBCHEM_CACTVS_HBOND_ACCEPTOR>
1

> <PUBCHEM_CACTVS_HBOND_DONOR>
1

> <PUBCHEM_CACTVS_ROTATABLE_BOND>
3

> <PUBCHEM_CACTVS_SUBSKEYS>
AAADccBzAAAGAAAAAAAAAAAAAAAAAWAAAAAwAAAAAAAAAFgB8AAAHAIQAAAACAuBF2Ax0LbJkACgASZiZACCgC2hF6AJmSAwdpiIaKLBm5GUIAhokALIyCcQAAAAAABAAAIAACAAAIAABAAAQAAAAAAAAA==

> <PUBCHEM_IUPAC_OPENEYE_NAME>
6-chloro-2-(3-chloropropyl)-1H-benzimidazole

> <PUBCHEM_IUPAC_CAS_NAME>
6-chloro-2-(3-chloropropyl)-1H-benzimidazole

> <PUBCHEM_IUPAC_NAME>
6-chloro-2-(3-chloropropyl)-1H-benzimidazole

> <PUBCHEM_IUPAC_SYSTEMATIC_NAME>
6-chloranyl-2-(3-chloranylpropyl)-1H-benzimidazole

> <PUBCHEM_IUPAC_TRADITIONAL_NAME>
6-chloro-2-(3-chloropropyl)-1H-benzimidazole

> <PUBCHEM_IUPAC_INCHI>
InChI=1S/C10H10Cl2N2/c11-5-1-2-10-13-8-4-3-7(12)6-9(8)14-10/h3-4,6H,1-2,5H2,(H,13,14)

> <PUBCHEM_IUPAC_INCHIKEY>
NNIZVAFZDZPAGV-UHFFFAOYSA-N

> <PUBCHEM_XLOGP3>
3.2

> <PUBCHEM_EXACT_MASS>
228.022104

> <PUBCHEM_MOLECULAR_FORMULA>
C10H10Cl2N2

> <PUBCHEM_MOLECULAR_WEIGHT>
229.1058

> <PUBCHEM_OPENEYE_CAN_SMILES>
C1=CC2=C(C=C1Cl)NC(=N2)CCCCl

> <PUBCHEM_OPENEYE_ISO_SMILES>
C1=CC2=C(C=C1Cl)NC(=N2)CCCCl

> <PUBCHEM_CACTVS_TPSA>
28.7

> <PUBCHEM_MONOISOTOPIC_WEIGHT>
228.022104

> <PUBCHEM_TOTAL_CHARGE>
0

> <PUBCHEM_HEAVY_ATOM_COUNT>
14

> <PUBCHEM_ATOM_DEF_STEREO_COUNT>
0

> <PUBCHEM_ATOM_UDEF_STEREO_COUNT>
0

> <PUBCHEM_BOND_DEF_STEREO_COUNT>
0

> <PUBCHEM_BOND_UDEF_STEREO_COUNT>
0

> <PUBCHEM_ISOTOPIC_ATOM_COUNT>
0

> <PUBCHEM_COMPONENT_COUNT>
1

> <PUBCHEM_CACTVS_TAUTO_COUNT>
3

> <PUBCHEM_COORDINATE_TYPE>
1
5
255

> <PUBCHEM_BONDANNOTATIONS>
11  13  8
12  14  8
13  14  8
3  6  8
3  8  8
4  6  8
4  9  8
8  11  8
8  9  8
9  12  8

$$$$
28892998
  -OEChem-05231305182D

 19 19  0     0  0  0  0  0  0999 V2000
    5.4641    3.0000    0.0000 Br  0  0  0  0  0  0  0  0  0  0  0  0
    3.7320   -3.0000    0.0000 Br  0  0  0  0  0  0  0  0  0  0  0  0
    2.0000    0.0000    0.0000 Cl  0  0  0  0  0  0  0  0  0  0  0  0
    3.7320    1.0000    0.0000 O   0  0  0  0  0  0  0  0  0  0  0  0
    3.7320    0.0000    0.0000 C   0  0  0  0  0  0  0  0  0  0  0  0
    4.5981    1.5000    0.0000 C   0  0  0  0  0  0  0  0  0  0  0  0
    2.8660   -0.5000    0.0000 C   0  0  0  0  0  0  0  0  0  0  0  0
    4.5981   -0.5000    0.0000 C   0  0  0  0  0  0  0  0  0  0  0  0
    4.5981    2.5000    0.0000 C   0  0  0  0  0  0  0  0  0  0  0  0
    2.8660   -1.5000    0.0000 C   0  0  0  0  0  0  0  0  0  0  0  0
    4.5981   -1.5000    0.0000 C   0  0  0  0  0  0  0  0  0  0  0  0
    3.7320   -2.0000    0.0000 C   0  0  0  0  0  0  0  0  0  0  0  0
    4.8101    0.9174    0.0000 H   0  0  0  0  0  0  0  0  0  0  0  0
    5.2087    1.6077    0.0000 H   0  0  0  0  0  0  0  0  0  0  0  0
    5.1350   -0.1900    0.0000 H   0  0  0  0  0  0  0  0  0  0  0  0
    4.3860    3.0826    0.0000 H   0  0  0  0  0  0  0  0  0  0  0  0
    3.9875    2.3923    0.0000 H   0  0  0  0  0  0  0  0  0  0  0  0
    2.3291   -1.8100    0.0000 H   0  0  0  0  0  0  0  0  0  0  0  0
    5.1350   -1.8100    0.0000 H   0  0  0  0  0  0  0  0  0  0  0  0
  1  9  1  0  0  0  0
  2 12  1  0  0  0  0
  3  7  1  0  0  0  0
  4  5  1  0  0  0  0
  4  6  1  0  0  0  0
  5  7  2  0  0  0  0
  5  8  1  0  0  0  0
  6  9  1  0  0  0  0
  6 13  1  0  0  0  0
  6 14  1  0  0  0  0
  7 10  1  0  0  0  0
  8 11  2  0  0  0  0
  8 15  1  0  0  0  0
  9 16  1  0  0  0  0
  9 17  1  0  0  0  0
 10 12  2  0  0  0  0
 10 18  1  0  0  0  0
 11 12  1  0  0  0  0
 11 19  1  0  0  0  0
M  END
> <PUBCHEM_COMPOUND_CID>
28892998

> <PUBCHEM_COMPOUND_CANONICALIZED>
1

> <PUBCHEM_CACTVS_COMPLEXITY>
134

> <PUBCHEM_CACTVS_HBOND_ACCEPTOR>
1

> <PUBCHEM_CACTVS_HBOND_DONOR>
0

> <PUBCHEM_CACTVS_ROTATABLE_BOND>
3

> <PUBCHEM_CACTVS_SUBSKEYS>
AAADcYBwIAAEGAAAAAAAAAAAAAAAAAAAAAAwAAAAAAAAAAABAAAAGgJAAAAB6AagkCIwBoAABACAACBCAAACCAAgJUQIiAAGC6gMJiOFMxqCOCCkwBEIqheAQAAAABAAAABACAAAIAAAAIAQAAAAAAAAAA==

> <PUBCHEM_IUPAC_OPENEYE_NAME>
4-bromo-1-(2-bromoethoxy)-2-chloro-benzene

> <PUBCHEM_IUPAC_CAS_NAME>
4-bromo-1-(2-bromoethoxy)-2-chlorobenzene

> <PUBCHEM_IUPAC_NAME>
4-bromo-1-(2-bromoethoxy)-2-chlorobenzene

> <PUBCHEM_IUPAC_SYSTEMATIC_NAME>
4-bromanyl-1-(2-bromoethyloxy)-2-chloranyl-benzene

> <PUBCHEM_IUPAC_TRADITIONAL_NAME>
4-bromo-1-(2-bromoethoxy)-2-chloro-benzene

> <PUBCHEM_IUPAC_INCHI>
InChI=1S/C8H7Br2ClO/c9-3-4-12-8-2-1-6(10)5-7(8)11/h1-2,5H,3-4H2

> <PUBCHEM_IUPAC_INCHIKEY>
SLIHCPFRJAJBQM-UHFFFAOYSA-N

> <PUBCHEM_XLOGP3>
4.5

> <PUBCHEM_EXACT_MASS>
313.85317

> <PUBCHEM_MOLECULAR_FORMULA>
C8H7Br2ClO

> <PUBCHEM_MOLECULAR_WEIGHT>
314.40158

> <PUBCHEM_OPENEYE_CAN_SMILES>
C1=CC(=C(C=C1Br)Cl)OCCBr

> <PUBCHEM_OPENEYE_ISO_SMILES>
C1=CC(=C(C=C1Br)Cl)OCCBr

> <PUBCHEM_CACTVS_TPSA>
9.2

> <PUBCHEM_MONOISOTOPIC_WEIGHT>
311.855217

> <PUBCHEM_TOTAL_CHARGE>
0

> <PUBCHEM_HEAVY_ATOM_COUNT>
12

> <PUBCHEM_ATOM_DEF_STEREO_COUNT>
0

> <PUBCHEM_ATOM_UDEF_STEREO_COUNT>
0

> <PUBCHEM_BOND_DEF_STEREO_COUNT>
0

> <PUBCHEM_BOND_UDEF_STEREO_COUNT>
0

> <PUBCHEM_ISOTOPIC_ATOM_COUNT>
0

> <PUBCHEM_COMPONENT_COUNT>
1

> <PUBCHEM_CACTVS_TAUTO_COUNT>
1

> <PUBCHEM_COORDINATE_TYPE>
1
5
255

> <PUBCHEM_BONDANNOTATIONS>
10  12  8
11  12  8
5  7  8
5  8  8
7  10  8
8  11  8

$$$$
28893000
  -OEChem-05231305182D

 22 22  0     0  0  0  0  0  0999 V2000
    3.7320   -3.5000    0.0000 Br  0  0  0  0  0  0  0  0  0  0  0  0
    5.4641    3.5000    0.0000 Cl  0  0  0  0  0  0  0  0  0  0  0  0
    2.0000   -0.5000    0.0000 Cl  0  0  0  0  0  0  0  0  0  0  0  0
    3.7320    0.5000    0.0000 O   0  0  0  0  0  0  0  0  0  0  0  0
    4.5981    2.0000    0.0000 C   0  0  0  0  0  0  0  0  0  0  0  0
    4.5981    1.0000    0.0000 C   0  0  0  0  0  0  0  0  0  0  0  0
    3.7320   -0.5000    0.0000 C   0  0  0  0  0  0  0  0  0  0  0  0
    5.4641    2.5000    0.0000 C   0  0  0  0  0  0  0  0  0  0  0  0
    2.8660   -1.0000    0.0000 C   0  0  0  0  0  0  0  0  0  0  0  0
    4.5981   -1.0000    0.0000 C   0  0  0  0  0  0  0  0  0  0  0  0
    2.8660   -2.0000    0.0000 C   0  0  0  0  0  0  0  0  0  0  0  0
    4.5981   -2.0000    0.0000 C   0  0  0  0  0  0  0  0  0  0  0  0
    3.7320   -2.5000    0.0000 C   0  0  0  0  0  0  0  0  0  0  0  0
    4.3860    2.5826    0.0000 H   0  0  0  0  0  0  0  0  0  0  0  0
    3.9875    1.8923    0.0000 H   0  0  0  0  0  0  0  0  0  0  0  0
    4.8101    0.4174    0.0000 H   0  0  0  0  0  0  0  0  0  0  0  0
    5.2087    1.1077    0.0000 H   0  0  0  0  0  0  0  0  0  0  0  0
    5.6762    1.9174    0.0000 H   0  0  0  0  0  0  0  0  0  0  0  0
    6.0747    2.6077    0.0000 H   0  0  0  0  0  0  0  0  0  0  0  0
    5.1350   -0.6900    0.0000 H   0  0  0  0  0  0  0  0  0  0  0  0
    2.3291   -2.3100    0.0000 H   0  0  0  0  0  0  0  0  0  0  0  0
    5.1350   -2.3100    0.0000 H   0  0  0  0  0  0  0  0  0  0  0  0
  1 13  1  0  0  0  0
  2  8  1  0  0  0  0
  3  9  1  0  0  0  0
  4  6  1  0  0  0  0
  4  7  1  0  0  0  0
  5  6  1  0  0  0  0
  5  8  1  0  0  0  0
  5 14  1  0  0  0  0
  5 15  1  0  0  0  0
  6 16  1  0  0  0  0
  6 17  1  0  0  0  0
  7  9  2  0  0  0  0
  7 10  1  0  0  0  0
  8 18  1  0  0  0  0
  8 19  1  0  0  0  0
  9 11  1  0  0  0  0
 10 12  2  0  0  0  0
 10 20  1  0  0  0  0
 11 13  2  0  0  0  0
 11 21  1  0  0  0  0
 12 13  1  0  0  0  0
 12 22  1  0  0  0  0
M  END
> <PUBCHEM_COMPOUND_CID>
28893000

> <PUBCHEM_COMPOUND_CANONICALIZED>
1

> <PUBCHEM_CACTVS_COMPLEXITY>
146

> <PUBCHEM_CACTVS_HBOND_ACCEPTOR>
1

> <PUBCHEM_CACTVS_HBOND_DONOR>
0

> <PUBCHEM_CACTVS_ROTATABLE_BOND>
4

> <PUBCHEM_CACTVS_SUBSKEYS>
AAADccBwIAAGEAAAAAAAAAAAAAAAAAAAAAAwAAAAAAAAAAABAAAAGgJAAAABqAegkGIwBoAABACAACBCAAACCAAgJUQIiAAGC6gMJiOFMxqCOCCkwBEIqheAQAAAABAAAABACAAAIAAAAIAQAAAAAAAAAA==

> <PUBCHEM_IUPAC_OPENEYE_NAME>
4-bromo-2-chloro-1-(3-chloropropoxy)benzene

> <PUBCHEM_IUPAC_CAS_NAME>
4-bromo-2-chloro-1-(3-chloropropoxy)benzene

> <PUBCHEM_IUPAC_NAME>
4-bromo-2-chloro-1-(3-chloropropoxy)benzene

> <PUBCHEM_IUPAC_SYSTEMATIC_NAME>
4-bromanyl-2-chloranyl-1-(3-chloranylpropoxy)benzene

> <PUBCHEM_IUPAC_TRADITIONAL_NAME>
4-bromo-2-chloro-1-(3-chloropropoxy)benzene

> <PUBCHEM_IUPAC_INCHI>
InChI=1S/C9H9BrCl2O/c10-7-2-3-9(8(12)6-7)13-5-1-4-11/h2-3,6H,1,4-5H2

> <PUBCHEM_IUPAC_INCHIKEY>
JKDAMQYMQRQSHO-UHFFFAOYSA-N

> <PUBCHEM_XLOGP3>
4.7

> <PUBCHEM_EXACT_MASS>
281.921382

> <PUBCHEM_MOLECULAR_FORMULA>
C9H9BrCl2O

> <PUBCHEM_MOLECULAR_WEIGHT>
283.97716

> <PUBCHEM_OPENEYE_CAN_SMILES>
C1=CC(=C(C=C1Br)Cl)OCCCCl

> <PUBCHEM_OPENEYE_ISO_SMILES>
C1=CC(=C(C=C1Br)Cl)OCCCCl

> <PUBCHEM_CACTVS_TPSA>
9.2

> <PUBCHEM_MONOISOTOPIC_WEIGHT>
281.921382

> <PUBCHEM_TOTAL_CHARGE>
0

> <PUBCHEM_HEAVY_ATOM_COUNT>
13

> <PUBCHEM_ATOM_DEF_STEREO_COUNT>
0

> <PUBCHEM_ATOM_UDEF_STEREO_COUNT>
0

> <PUBCHEM_BOND_DEF_STEREO_COUNT>
0

> <PUBCHEM_BOND_UDEF_STEREO_COUNT>
0

> <PUBCHEM_ISOTOPIC_ATOM_COUNT>
0

> <PUBCHEM_COMPONENT_COUNT>
1

> <PUBCHEM_CACTVS_TAUTO_COUNT>
1

> <PUBCHEM_COORDINATE_TYPE>
1
5
255

> <PUBCHEM_BONDANNOTATIONS>
10  12  8
11  13  8
12  13  8
7  10  8
7  9  8
9  11  8

$$$$
