30888094
  -OEChem-11301217432D

 43 43  0     0  0  0  0  0  0999 V2000
    5.4641   -3.7500    0.0000 Br  0  0  0  0  0  0  0  0  0  0  0  0
    2.0000   -1.7500    0.0000 Cl  0  0  0  0  0  0  0  0  0  0  0  0
    2.8660   -0.2500    0.0000 O   0  0  0  0  0  0  0  0  0  0  0  0
    5.4641    2.2500    0.0000 N   0  3  0  0  0  0  0  0  0  0  0  0
    4.5981   -0.2500    0.0000 N   0  0  0  0  0  0  0  0  0  0  0  0
    5.4641    3.2500    0.0000 C   0  0  0  0  0  0  0  0  0  0  0  0
    6.4641    2.2500    0.0000 C   0  0  0  0  0  0  0  0  0  0  0  0
    5.4641    1.2500    0.0000 C   0  0  0  0  0  0  0  0  0  0  0  0
    4.5981    0.7500    0.0000 C   0  0  0  0  0  0  0  0  0  0  0  0
    6.3301    3.7500    0.0000 C   0  0  0  0  0  0  0  0  0  0  0  0
    4.5981    3.7500    0.0000 C   0  0  0  0  0  0  0  0  0  0  0  0
    6.9641    1.3840    0.0000 C   0  0  0  0  0  0  0  0  0  0  0  0
    6.9641    3.1160    0.0000 C   0  0  0  0  0  0  0  0  0  0  0  0
    3.7320   -0.7500    0.0000 C   0  0  0  0  0  0  0  0  0  0  0  0
    3.7320   -1.7500    0.0000 C   0  0  0  0  0  0  0  0  0  0  0  0
    4.5981   -2.2500    0.0000 C   0  0  0  0  0  0  0  0  0  0  0  0
    2.8660   -2.2500    0.0000 C   0  0  0  0  0  0  0  0  0  0  0  0
    4.5981   -3.2500    0.0000 C   0  0  0  0  0  0  0  0  0  0  0  0
    2.8660   -3.2500    0.0000 C   0  0  0  0  0  0  0  0  0  0  0  0
    3.7320   -3.7500    0.0000 C   0  0  0  0  0  0  0  0  0  0  0  0
    4.8441    2.2500    0.0000 H   0  0  0  0  0  0  0  0  0  0  0  0
    6.1541    2.7869    0.0000 H   0  0  0  0  0  0  0  0  0  0  0  0
    6.0010    2.9400    0.0000 H   0  0  0  0  0  0  0  0  0  0  0  0
    5.6762    0.6674    0.0000 H   0  0  0  0  0  0  0  0  0  0  0  0
    6.0747    1.3577    0.0000 H   0  0  0  0  0  0  0  0  0  0  0  0
    4.3860    1.3326    0.0000 H   0  0  0  0  0  0  0  0  0  0  0  0
    3.9875    0.6423    0.0000 H   0  0  0  0  0  0  0  0  0  0  0  0
    6.6401    3.2131    0.0000 H   0  0  0  0  0  0  0  0  0  0  0  0
    7.5010    2.8060    0.0000 H   0  0  0  0  0  0  0  0  0  0  0  0
    7.2741    3.6530    0.0000 H   0  0  0  0  0  0  0  0  0  0  0  0
    6.4272    3.4260    0.0000 H   0  0  0  0  0  0  0  0  0  0  0  0
    6.4272    1.0740    0.0000 H   0  0  0  0  0  0  0  0  0  0  0  0
    7.2741    0.8470    0.0000 H   0  0  0  0  0  0  0  0  0  0  0  0
    7.5010    1.6940    0.0000 H   0  0  0  0  0  0  0  0  0  0  0  0
    4.9081    4.2869    0.0000 H   0  0  0  0  0  0  0  0  0  0  0  0
    4.0611    4.0600    0.0000 H   0  0  0  0  0  0  0  0  0  0  0  0
    4.2881    3.2131    0.0000 H   0  0  0  0  0  0  0  0  0  0  0  0
    6.8671    4.0600    0.0000 H   0  0  0  0  0  0  0  0  0  0  0  0
    6.0201    4.2869    0.0000 H   0  0  0  0  0  0  0  0  0  0  0  0
    5.1350   -0.5600    0.0000 H   0  0  0  0  0  0  0  0  0  0  0  0
    5.1350   -1.9400    0.0000 H   0  0  0  0  0  0  0  0  0  0  0  0
    2.3291   -3.5600    0.0000 H   0  0  0  0  0  0  0  0  0  0  0  0
    3.7320   -4.3700    0.0000 H   0  0  0  0  0  0  0  0  0  0  0  0
  1 18  1  0  0  0  0
  2 17  1  0  0  0  0
  3 14  2  0  0  0  0
  4  6  1  0  0  0  0
  4  7  1  0  0  0  0
  4  8  1  0  0  0  0
  4 21  1  0  0  0  0
  5  9  1  0  0  0  0
  5 14  1  0  0  0  0
  5 40  1  0  0  0  0
  6 10  1  0  0  0  0
  6 11  1  0  0  0  0
  6 23  1  0  0  0  0
  7 12  1  0  0  0  0
  7 13  1  0  0  0  0
  7 22  1  0  0  0  0
  8  9  1  0  0  0  0
  8 24  1  0  0  0  0
  8 25  1  0  0  0  0
  9 26  1  0  0  0  0
  9 27  1  0  0  0  0
 10 28  1  0  0  0  0
 10 38  1  0  0  0  0
 10 39  1  0  0  0  0
 11 35  1  0  0  0  0
 11 36  1  0  0  0  0
 11 37  1  0  0  0  0
 12 32  1  0  0  0  0
 12 33  1  0  0  0  0
 12 34  1  0  0  0  0
 13 29  1  0  0  0  0
 13 30  1  0  0  0  0
 13 31  1  0  0  0  0
 14 15  1  0  0  0  0
 15 16  1  0  0  0  0
 15 17  2  0  0  0  0
 16 18  2  0  0  0  0
 16 41  1  0  0  0  0
 17 19  1  0  0  0  0
 18 20  1  0  0  0  0
 19 20  2  0  0  0  0
 19 42  1  0  0  0  0
 20 43  1  0  0  0  0
M  CHG  1   4   1
M  END
> <PUBCHEM_COMPOUND_CID>
30888094

> <PUBCHEM_COMPOUND_CANONICALIZED>
1

> <PUBCHEM_CACTVS_COMPLEXITY>
304

> <PUBCHEM_CACTVS_HBOND_ACCEPTOR>
1

> <PUBCHEM_CACTVS_HBOND_DONOR>
2

> <PUBCHEM_CACTVS_ROTATABLE_BOND>
6

> <PUBCHEM_CACTVS_SUBSKEYS>
AAADceBzIAAEEAAAAAAAAAAAAAAAAAAAAAAwAAAAAAAAAAABAAAAHgJQAAABrCrBmCQyAIPAAACIAiFSEACCAAAkBQQIiIEIBugIYDKBlxGUIQhglgCIj5cYiACOAAAIEAABAAAAABAgAAIAAAAAAAAAAA==

> <PUBCHEM_IUPAC_OPENEYE_NAME>
2-[(5-bromo-2-chloro-benzoyl)amino]ethyl-diisopropyl-ammonium

> <PUBCHEM_IUPAC_CAS_NAME>
2-[[(5-bromo-2-chlorophenyl)-oxomethyl]amino]ethyl-di(propan-2-yl)ammonium

> <PUBCHEM_IUPAC_NAME>
2-[(5-bromo-2-chlorobenzoyl)amino]ethyl-di(propan-2-yl)azanium

> <PUBCHEM_IUPAC_SYSTEMATIC_NAME>
2-[(5-bromanyl-2-chloranyl-phenyl)carbonylamino]ethyl-di(propan-2-yl)azanium

> <PUBCHEM_IUPAC_TRADITIONAL_NAME>
2-[(5-bromo-2-chloro-benzoyl)amino]ethyl-diisopropyl-ammonium

> <PUBCHEM_IUPAC_INCHI>
InChI=1S/C15H22BrClN2O/c1-10(2)19(11(3)4)8-7-18-15(20)13-9-12(16)5-6-14(13)17/h5-6,9-11H,7-8H2,1-4H3,(H,18,20)/p+1

> <PUBCHEM_IUPAC_INCHIKEY>
FFVLZXHRMLZHFL-UHFFFAOYSA-O

> <PUBCHEM_XLOGP3>
4.7

> <PUBCHEM_EXACT_MASS>
361.068228

> <PUBCHEM_MOLECULAR_FORMULA>
C15H23BrClN2O+

> <PUBCHEM_MOLECULAR_WEIGHT>
362.71292

> <PUBCHEM_OPENEYE_CAN_SMILES>
CC(C)[NH+](CCNC(=O)C1=C(C=CC(=C1)Br)Cl)C(C)C

> <PUBCHEM_OPENEYE_ISO_SMILES>
CC(C)[NH+](CCNC(=O)C1=C(C=CC(=C1)Br)Cl)C(C)C

> <PUBCHEM_CACTVS_TPSA>
33.5

> <PUBCHEM_MONOISOTOPIC_WEIGHT>
361.068228

> <PUBCHEM_TOTAL_CHARGE>
1

> <PUBCHEM_HEAVY_ATOM_COUNT>
20

> <PUBCHEM_ATOM_DEF_STEREO_COUNT>
0

> <PUBCHEM_ATOM_UDEF_STEREO_COUNT>
0

> <PUBCHEM_BOND_DEF_STEREO_COUNT>
0

> <PUBCHEM_BOND_UDEF_STEREO_COUNT>
0

> <PUBCHEM_ISOTOPIC_ATOM_COUNT>
0

> <PUBCHEM_COMPONENT_COUNT>
1

> <PUBCHEM_CACTVS_TAUTO_COUNT>
2

> <PUBCHEM_COORDINATE_TYPE>
1
5
255

> <PUBCHEM_BONDANNOTATIONS>
15  16  8
15  17  8
16  18  8
17  19  8
18  20  8
19  20  8

$$$$
