42104432
  -OEChem-03061303122D

 43 44  0     1  0  0  0  0  0999 V2000
    6.2633   -0.5526    0.0000 O   0  0  0  0  0  0  0  0  0  0  0  0
    4.3665   -2.3126    0.0000 O   0  0  0  0  0  0  0  0  0  0  0  0
    3.6942   -0.2436    0.0000 O   0  0  0  0  0  0  0  0  0  0  0  0
    7.5366   -2.2081    0.0000 O   0  0  0  0  0  0  0  0  0  0  0  0
    3.7222    1.0352    0.0000 O   0  0  0  0  0  0  0  0  0  0  0  0
    5.7678   -3.3307    0.0000 O   0  0  0  0  0  0  0  0  0  0  0  0
    3.1590   -1.8908    0.0000 O   0  0  0  0  0  0  0  0  0  0  0  0
    7.7176   -3.9307    0.0000 O   0  0  0  0  0  0  0  0  0  0  0  0
    5.4543    4.0352    0.0000 O   0  0  0  0  0  0  0  0  0  0  0  0
    5.4543    1.0352    0.0000 N   0  0  0  0  0  0  0  0  0  0  0  0
    6.3203    1.5352    0.0000 N   0  0  0  0  0  0  0  0  0  0  0  0
    4.5883    2.5352    0.0000 N   0  0  0  0  0  0  0  0  0  0  0  0
    4.9543   -1.5036    0.0000 C   0  0  1  0  0  0  0  0  0  0  0  0
    4.6453   -0.5526    0.0000 C   0  0  1  0  0  0  0  0  0  0  0  0
    5.9543   -1.5036    0.0000 C   0  0  1  0  0  0  0  0  0  0  0  0
    5.4543    0.0352    0.0000 C   0  0  2  0  0  0  0  0  0  0  0  0
    6.5421   -2.3126    0.0000 C   0  0  0  0  0  0  0  0  0  0  0  0
    4.5883    1.5352    0.0000 C   0  0  0  0  0  0  0  0  0  0  0  0
    4.7732   -3.2262    0.0000 C   0  0  0  0  0  0  0  0  0  0  0  0
    2.9511   -0.9127    0.0000 C   0  0  0  0  0  0  0  0  0  0  0  0
    6.3203    2.5352    0.0000 C   0  0  0  0  0  0  0  0  0  0  0  0
    8.1244   -3.0171    0.0000 C   0  0  0  0  0  0  0  0  0  0  0  0
    4.1854   -4.0352    0.0000 C   0  0  0  0  0  0  0  0  0  0  0  0
    5.4543    3.0352    0.0000 C   0  0  0  0  0  0  0  0  0  0  0  0
    2.0000   -0.6037    0.0000 C   0  0  0  0  0  0  0  0  0  0  0  0
    9.1189   -2.9126    0.0000 C   0  0  0  0  0  0  0  0  0  0  0  0
    4.3419   -1.4066    0.0000 H   0  0  0  0  0  0  0  0  0  0  0  0
    4.5483    0.0598    0.0000 H   0  0  0  0  0  0  0  0  0  0  0  0
    6.5666   -1.4066    0.0000 H   0  0  0  0  0  0  0  0  0  0  0  0
    4.9018    0.3167    0.0000 H   0  0  0  0  0  0  0  0  0  0  0  0
    5.9848   -2.5844    0.0000 H   0  0  0  0  0  0  0  0  0  0  0  0
    6.7130   -2.9086    0.0000 H   0  0  0  0  0  0  0  0  0  0  0  0
    4.0513    2.8452    0.0000 H   0  0  0  0  0  0  0  0  0  0  0  0
    6.8572    2.8452    0.0000 H   0  0  0  0  0  0  0  0  0  0  0  0
    3.6838   -3.6708    0.0000 H   0  0  0  0  0  0  0  0  0  0  0  0
    3.8210   -4.5368    0.0000 H   0  0  0  0  0  0  0  0  0  0  0  0
    4.6870   -4.3996    0.0000 H   0  0  0  0  0  0  0  0  0  0  0  0
    2.1916   -0.0140    0.0000 H   0  0  0  0  0  0  0  0  0  0  0  0
    1.4103   -0.4121    0.0000 H   0  0  0  0  0  0  0  0  0  0  0  0
    1.8084   -1.1933    0.0000 H   0  0  0  0  0  0  0  0  0  0  0  0
    9.1837   -3.5292    0.0000 H   0  0  0  0  0  0  0  0  0  0  0  0
    9.7355   -2.8478    0.0000 H   0  0  0  0  0  0  0  0  0  0  0  0
    9.0541   -2.2960    0.0000 H   0  0  0  0  0  0  0  0  0  0  0  0
  1 15  1  0  0  0  0
  1 16  1  0  0  0  0
 13  2  1  1  0  0  0
  2 19  1  0  0  0  0
 14  3  1  6  0  0  0
  3 20  1  0  0  0  0
  4 17  1  0  0  0  0
  4 22  1  0  0  0  0
  5 18  2  0  0  0  0
  6 19  2  0  0  0  0
  7 20  2  0  0  0  0
  8 22  2  0  0  0  0
  9 24  2  0  0  0  0
 10 11  1  0  0  0  0
 16 10  1  1  0  0  0
 10 18  1  0  0  0  0
 11 21  2  0  0  0  0
 12 18  1  0  0  0  0
 12 24  1  0  0  0  0
 12 33  1  0  0  0  0
 13 14  1  0  0  0  0
 13 15  1  0  0  0  0
 13 27  1  0  0  0  0
 14 16  1  0  0  0  0
 14 28  1  0  0  0  0
 15 17  1  6  0  0  0
 15 29  1  0  0  0  0
 16 30  1  0  0  0  0
 17 31  1  0  0  0  0
 17 32  1  0  0  0  0
 19 23  1  0  0  0  0
 20 25  1  0  0  0  0
 21 24  1  0  0  0  0
 21 34  1  0  0  0  0
 22 26  1  0  0  0  0
 23 35  1  0  0  0  0
 23 36  1  0  0  0  0
 23 37  1  0  0  0  0
 25 38  1  0  0  0  0
 25 39  1  0  0  0  0
 25 40  1  0  0  0  0
 26 41  1  0  0  0  0
 26 42  1  0  0  0  0
 26 43  1  0  0  0  0
M  END
> <PUBCHEM_COMPOUND_CID>
42104432

> <PUBCHEM_COMPOUND_CANONICALIZED>
1

> <PUBCHEM_CACTVS_COMPLEXITY>
662

> <PUBCHEM_CACTVS_HBOND_ACCEPTOR>
10

> <PUBCHEM_CACTVS_HBOND_DONOR>
1

> <PUBCHEM_CACTVS_ROTATABLE_BOND>
8

> <PUBCHEM_CACTVS_SUBSKEYS>
AAADceBzPAAAAAAAAAAAAAAAAAAAASAAAAAgAAAAAAAAAAAAAAAAHgAYAAAACBThgAYDCALABAAoABGxGAAQAAAAAAAWAAAIAACDAAIAgAAPAAAfHyISAADwMAoAAAAAAAAAAAAAAAAAAAAAAAAAAAAAAA==

> <PUBCHEM_IUPAC_OPENEYE_NAME>
[(2R,3R,4S,5S)-3,4-diacetoxy-5-(3,5-dioxo-1,2,4-triazin-2-yl)tetrahydrofuran-2-yl]methyl acetate

> <PUBCHEM_IUPAC_CAS_NAME>
acetic acid [(2R,3R,4S,5S)-3,4-diacetyloxy-5-(3,5-dioxo-1,2,4-triazin-2-yl)-2-oxolanyl]methyl ester

> <PUBCHEM_IUPAC_NAME>
[(2R,3R,4S,5S)-3,4-diacetyloxy-5-(3,5-dioxo-1,2,4-triazin-2-yl)oxolan-2-yl]methyl acetate

> <PUBCHEM_IUPAC_SYSTEMATIC_NAME>
[(2R,3R,4S,5S)-3,4-diacetyloxy-5-[3,5-bis(oxidanylidene)-1,2,4-triazin-2-yl]oxolan-2-yl]methyl ethanoate

> <PUBCHEM_IUPAC_TRADITIONAL_NAME>
acetic acid [(2R,3R,4S,5S)-3,4-diacetoxy-5-(3,5-diketo-1,2,4-triazin-2-yl)tetrahydrofuran-2-yl]methyl ester

> <PUBCHEM_IUPAC_INCHI>
InChI=1S/C14H17N3O9/c1-6(18)23-5-9-11(24-7(2)19)12(25-8(3)20)13(26-9)17-14(22)16-10(21)4-15-17/h4,9,11-13H,5H2,1-3H3,(H,16,21,22)/t9-,11-,12+,13+/m1/s1

> <PUBCHEM_IUPAC_INCHIKEY>
QQOBRRFOVWGIMD-XEZLXBQYSA-N

> <PUBCHEM_XLOGP3>
-0.2

> <PUBCHEM_EXACT_MASS>
371.096479

> <PUBCHEM_MOLECULAR_FORMULA>
C14H17N3O9

> <PUBCHEM_MOLECULAR_WEIGHT>
371.29948

> <PUBCHEM_OPENEYE_CAN_SMILES>
CC(=O)OCC1C(C(C(O1)N2C(=O)NC(=O)C=N2)OC(=O)C)OC(=O)C

> <PUBCHEM_OPENEYE_ISO_SMILES>
CC(=O)OC[C@@H]1[C@H]([C@@H]([C@H](O1)N2C(=O)NC(=O)C=N2)OC(=O)C)OC(=O)C

> <PUBCHEM_CACTVS_TPSA>
150

> <PUBCHEM_MONOISOTOPIC_WEIGHT>
371.096479

> <PUBCHEM_TOTAL_CHARGE>
0

> <PUBCHEM_HEAVY_ATOM_COUNT>
26

> <PUBCHEM_ATOM_DEF_STEREO_COUNT>
4

> <PUBCHEM_ATOM_UDEF_STEREO_COUNT>
0

> <PUBCHEM_BOND_DEF_STEREO_COUNT>
0

> <PUBCHEM_BOND_UDEF_STEREO_COUNT>
0

> <PUBCHEM_ISOTOPIC_ATOM_COUNT>
0

> <PUBCHEM_COMPONENT_COUNT>
1

> <PUBCHEM_CACTVS_TAUTO_COUNT>
3

> <PUBCHEM_COORDINATE_TYPE>
1
5
255

> <PUBCHEM_BONDANNOTATIONS>
10  11  8
16  10  5
10  18  8
11  21  8
12  18  8
12  24  8
15  17  6
13  2  5
21  24  8
14  3  6

$$$$
