9089027
  -OEChem-11301217062D

 31 32  0     0  0  0  0  0  0999 V2000
    2.0000   -2.2125    0.0000 F   0  0  0  0  0  0  0  0  0  0  0  0
    5.4641   -2.2125    0.0000 F   0  0  0  0  0  0  0  0  0  0  0  0
    5.4641   -4.2125    0.0000 F   0  0  0  0  0  0  0  0  0  0  0  0
    2.0000   -4.2125    0.0000 F   0  0  0  0  0  0  0  0  0  0  0  0
    3.7320   -5.2125    0.0000 F   0  0  0  0  0  0  0  0  0  0  0  0
    6.4347    3.2820    0.0000 O   0  0  0  0  0  0  0  0  0  0  0  0
    3.7320    0.7875    0.0000 O   0  0  0  0  0  0  0  0  0  0  0  0
    8.8141    4.5080    0.0000 O   0  5  0  0  0  0  0  0  0  0  0  0
    7.2318    5.2125    0.0000 O   0  0  0  0  0  0  0  0  0  0  0  0
    3.7320   -1.2125    0.0000 N   0  0  0  0  0  0  0  0  0  0  0  0
    4.5981   -0.7125    0.0000 N   0  0  0  0  0  0  0  0  0  0  0  0
    7.8195    4.4035    0.0000 N   0  3  0  0  0  0  0  0  0  0  0  0
    3.7320   -2.2125    0.0000 C   0  0  0  0  0  0  0  0  0  0  0  0
    2.8660   -2.7125    0.0000 C   0  0  0  0  0  0  0  0  0  0  0  0
    4.5981   -2.7125    0.0000 C   0  0  0  0  0  0  0  0  0  0  0  0
    4.5981   -3.7125    0.0000 C   0  0  0  0  0  0  0  0  0  0  0  0
    2.8660   -3.7125    0.0000 C   0  0  0  0  0  0  0  0  0  0  0  0
    3.7320   -4.2125    0.0000 C   0  0  0  0  0  0  0  0  0  0  0  0
    6.3301    2.2875    0.0000 C   0  0  0  0  0  0  0  0  0  0  0  0
    4.5981    0.2875    0.0000 C   0  0  0  0  0  0  0  0  0  0  0  0
    5.4641    1.7875    0.0000 C   0  0  0  0  0  0  0  0  0  0  0  0
    7.2437    1.8808    0.0000 C   0  0  0  0  0  0  0  0  0  0  0  0
    5.4641    0.7875    0.0000 C   0  0  0  0  0  0  0  0  0  0  0  0
    7.4128    3.4899    0.0000 C   0  0  0  0  0  0  0  0  0  0  0  0
    7.9128    2.6239    0.0000 C   0  0  0  0  0  0  0  0  0  0  0  0
    3.1951   -0.9025    0.0000 H   0  0  0  0  0  0  0  0  0  0  0  0
    5.1350   -1.0225    0.0000 H   0  0  0  0  0  0  0  0  0  0  0  0
    4.9272    2.0975    0.0000 H   0  0  0  0  0  0  0  0  0  0  0  0
    7.3726    1.2743    0.0000 H   0  0  0  0  0  0  0  0  0  0  0  0
    6.0010    0.4775    0.0000 H   0  0  0  0  0  0  0  0  0  0  0  0
    8.5294    2.5591    0.0000 H   0  0  0  0  0  0  0  0  0  0  0  0
  1 14  1  0  0  0  0
  2 15  1  0  0  0  0
  3 16  1  0  0  0  0
  4 17  1  0  0  0  0
  5 18  1  0  0  0  0
  6 19  1  0  0  0  0
  6 24  1  0  0  0  0
  7 20  2  0  0  0  0
  8 12  1  0  0  0  0
  9 12  2  0  0  0  0
 10 11  1  0  0  0  0
 10 13  1  0  0  0  0
 10 26  1  0  0  0  0
 11 20  1  0  0  0  0
 11 27  1  0  0  0  0
 12 24  1  0  0  0  0
 13 14  2  0  0  0  0
 13 15  1  0  0  0  0
 14 17  1  0  0  0  0
 15 16  2  0  0  0  0
 16 18  1  0  0  0  0
 17 18  2  0  0  0  0
 19 21  1  0  0  0  0
 19 22  2  0  0  0  0
 20 23  1  0  0  0  0
 21 23  2  0  0  0  0
 21 28  1  0  0  0  0
 22 25  1  0  0  0  0
 22 29  1  0  0  0  0
 23 30  1  0  0  0  0
 24 25  2  0  0  0  0
 25 31  1  0  0  0  0
M  CHG  2   8  -1  12   1
M  END
> <PUBCHEM_COMPOUND_CID>
9089027

> <PUBCHEM_COMPOUND_CANONICALIZED>
1

> <PUBCHEM_CACTVS_COMPLEXITY>
518

> <PUBCHEM_CACTVS_HBOND_ACCEPTOR>
10

> <PUBCHEM_CACTVS_HBOND_DONOR>
2

> <PUBCHEM_CACTVS_ROTATABLE_BOND>
4

> <PUBCHEM_CACTVS_SUBSKEYS>
AAADcYBzOcAAAAAAAAAAAAAAAAAAASAAAAAwAAAAAAAAAAABwAAAHwAcAAAACAyBkAgwxIByRECJAKVSUwCCDAAsIgI6qAEGbMoMJjKEtZuKOSDk0BEI6Ye8AAAAAAAAAAAAAAAAAAAAAAAAAAAAAAAAAA==

> <PUBCHEM_IUPAC_OPENEYE_NAME>
(E)-3-(5-nitro-2-furyl)-N'-(2,3,4,5,6-pentafluorophenyl)prop-2-enehydrazide

> <PUBCHEM_IUPAC_CAS_NAME>
(E)-3-(5-nitro-2-furanyl)-N'-(2,3,4,5,6-pentafluorophenyl)-2-propenehydrazide

> <PUBCHEM_IUPAC_NAME>
(E)-3-(5-nitrofuran-2-yl)-N'-(2,3,4,5,6-pentafluorophenyl)prop-2-enehydrazide

> <PUBCHEM_IUPAC_SYSTEMATIC_NAME>
(E)-3-(5-nitrofuran-2-yl)-N'-[2,3,4,5,6-pentakis(fluoranyl)phenyl]prop-2-enehydrazide

> <PUBCHEM_IUPAC_TRADITIONAL_NAME>
(E)-3-(5-nitro-2-furyl)-N'-(2,3,4,5,6-pentafluorophenyl)acrylohydrazide

> <PUBCHEM_IUPAC_INCHI>
InChI=1S/C13H6F5N3O4/c14-8-9(15)11(17)13(12(18)10(8)16)20-19-6(22)3-1-5-2-4-7(25-5)21(23)24/h1-4,20H,(H,19,22)/b3-1+

> <PUBCHEM_IUPAC_INCHIKEY>
PKNYVJPLAMEKQQ-HNQUOIGGSA-N

> <PUBCHEM_XLOGP3>
3.4

> <PUBCHEM_EXACT_MASS>
363.027847

> <PUBCHEM_MOLECULAR_FORMULA>
C13H6F5N3O4

> <PUBCHEM_MOLECULAR_WEIGHT>
363.196456

> <PUBCHEM_OPENEYE_CAN_SMILES>
C1=C(OC(=C1)[N+](=O)[O-])C=CC(=O)NNC2=C(C(=C(C(=C2F)F)F)F)F

> <PUBCHEM_OPENEYE_ISO_SMILES>
C1=C(OC(=C1)[N+](=O)[O-])/C=C/C(=O)NNC2=C(C(=C(C(=C2F)F)F)F)F

> <PUBCHEM_CACTVS_TPSA>
100

> <PUBCHEM_MONOISOTOPIC_WEIGHT>
363.027847

> <PUBCHEM_TOTAL_CHARGE>
0

> <PUBCHEM_HEAVY_ATOM_COUNT>
25

> <PUBCHEM_ATOM_DEF_STEREO_COUNT>
0

> <PUBCHEM_ATOM_UDEF_STEREO_COUNT>
0

> <PUBCHEM_BOND_DEF_STEREO_COUNT>
1

> <PUBCHEM_BOND_UDEF_STEREO_COUNT>
0

> <PUBCHEM_ISOTOPIC_ATOM_COUNT>
0

> <PUBCHEM_COMPONENT_COUNT>
1

> <PUBCHEM_CACTVS_TAUTO_COUNT>
2

> <PUBCHEM_COORDINATE_TYPE>
1
5
255

> <PUBCHEM_BONDANNOTATIONS>
13  14  8
13  15  8
14  17  8
15  16  8
16  18  8
17  18  8
19  22  8
22  25  8
24  25  8
6  19  8
6  24  8

$$$$
9095987
  -OEChem-11301217062D

 33 34  0     1  0  0  0  0  0999 V2000
    3.7320   -3.7500    0.0000 Br  0  0  0  0  0  0  0  0  0  0  0  0
    5.4641    0.2500    0.0000 O   0  0  0  0  0  0  0  0  0  0  0  0
    3.7320    0.2500    0.0000 N   0  0  0  0  0  0  0  0  0  0  0  0
    4.5981    1.7500    0.0000 C   0  0  2  0  0  0  0  0  0  0  0  0
    5.4641    2.2500    0.0000 C   0  0  0  0  0  0  0  0  0  0  0  0
    3.7320    2.2500    0.0000 C   0  0  0  0  0  0  0  0  0  0  0  0
    5.4641    3.2500    0.0000 C   0  0  0  0  0  0  0  0  0  0  0  0
    4.5981    0.7500    0.0000 C   0  0  0  0  0  0  0  0  0  0  0  0
    3.7320    3.2500    0.0000 C   0  0  0  0  0  0  0  0  0  0  0  0
    4.5981    3.7500    0.0000 C   0  0  0  0  0  0  0  0  0  0  0  0
    3.7320   -0.7500    0.0000 C   0  0  0  0  0  0  0  0  0  0  0  0
    2.8660   -1.2500    0.0000 C   0  0  0  0  0  0  0  0  0  0  0  0
    4.5981   -1.2500    0.0000 C   0  0  0  0  0  0  0  0  0  0  0  0
    2.8660   -2.2500    0.0000 C   0  0  0  0  0  0  0  0  0  0  0  0
    4.5981   -2.2500    0.0000 C   0  0  0  0  0  0  0  0  0  0  0  0
    3.7320   -2.7500    0.0000 C   0  0  0  0  0  0  0  0  0  0  0  0
    2.0000   -2.7500    0.0000 C   0  0  0  0  0  0  0  0  0  0  0  0
    5.1350    1.4400    0.0000 H   0  0  0  0  0  0  0  0  0  0  0  0
    5.6762    1.6674    0.0000 H   0  0  0  0  0  0  0  0  0  0  0  0
    6.0747    2.3577    0.0000 H   0  0  0  0  0  0  0  0  0  0  0  0
    3.1215    2.3577    0.0000 H   0  0  0  0  0  0  0  0  0  0  0  0
    3.5200    1.6674    0.0000 H   0  0  0  0  0  0  0  0  0  0  0  0
    6.0747    3.1423    0.0000 H   0  0  0  0  0  0  0  0  0  0  0  0
    5.6762    3.8326    0.0000 H   0  0  0  0  0  0  0  0  0  0  0  0
    3.1951    3.5600    0.0000 H   0  0  0  0  0  0  0  0  0  0  0  0
    4.5981    4.3700    0.0000 H   0  0  0  0  0  0  0  0  0  0  0  0
    3.1951    0.5600    0.0000 H   0  0  0  0  0  0  0  0  0  0  0  0
    2.3291   -0.9400    0.0000 H   0  0  0  0  0  0  0  0  0  0  0  0
    5.1350   -0.9400    0.0000 H   0  0  0  0  0  0  0  0  0  0  0  0
    5.1350   -2.5600    0.0000 H   0  0  0  0  0  0  0  0  0  0  0  0
    1.6900   -2.2131    0.0000 H   0  0  0  0  0  0  0  0  0  0  0  0
    1.4631   -3.0600    0.0000 H   0  0  0  0  0  0  0  0  0  0  0  0
    2.3100   -3.2869    0.0000 H   0  0  0  0  0  0  0  0  0  0  0  0
  1 16  1  0  0  0  0
  2  8  2  0  0  0  0
  3  8  1  0  0  0  0
  3 11  1  0  0  0  0
  3 27  1  0  0  0  0
  4  5  1  0  0  0  0
  4  6  1  0  0  0  0
  4  8  1  1  0  0  0
  4 18  1  0  0  0  0
  5  7  1  0  0  0  0
  5 19  1  0  0  0  0
  5 20  1  0  0  0  0
  6  9  1  0  0  0  0
  6 21  1  0  0  0  0
  6 22  1  0  0  0  0
  7 10  1  0  0  0  0
  7 23  1  0  0  0  0
  7 24  1  0  0  0  0
  9 10  2  0  0  0  0
  9 25  1  0  0  0  0
 10 26  1  0  0  0  0
 11 12  2  0  0  0  0
 11 13  1  0  0  0  0
 12 14  1  0  0  0  0
 12 28  1  0  0  0  0
 13 15  2  0  0  0  0
 13 29  1  0  0  0  0
 14 16  2  0  0  0  0
 14 17  1  0  0  0  0
 15 16  1  0  0  0  0
 15 30  1  0  0  0  0
 17 31  1  0  0  0  0
 17 32  1  0  0  0  0
 17 33  1  0  0  0  0
M  END
> <PUBCHEM_COMPOUND_CID>
9095987

> <PUBCHEM_COMPOUND_CANONICALIZED>
1

> <PUBCHEM_CACTVS_COMPLEXITY>
303

> <PUBCHEM_CACTVS_HBOND_ACCEPTOR>
1

> <PUBCHEM_CACTVS_HBOND_DONOR>
1

> <PUBCHEM_CACTVS_ROTATABLE_BOND>
2

> <PUBCHEM_CACTVS_SUBSKEYS>
AAADceByIAAAEAAAAAAAAAAAAAAAAAAAAAAwQAAAAAAAAAABAAAAHgBQAAABrQiBmAAywILAAACIAiVSUACCAAAhAgQIiAEAZKgIIDLAkZGEIAhglADIyhcYgAAOAAAgQAAAgAAAAECAAAEAAAAAAAAAAA==

> <PUBCHEM_IUPAC_OPENEYE_NAME>
(1R)-N-(4-bromo-3-methyl-phenyl)cyclohex-3-ene-1-carboxamide

> <PUBCHEM_IUPAC_CAS_NAME>
(1R)-N-(4-bromo-3-methylphenyl)-1-cyclohex-3-enecarboxamide

> <PUBCHEM_IUPAC_NAME>
(1R)-N-(4-bromo-3-methylphenyl)cyclohex-3-ene-1-carboxamide

> <PUBCHEM_IUPAC_SYSTEMATIC_NAME>
(1R)-N-(4-bromanyl-3-methyl-phenyl)cyclohex-3-ene-1-carboxamide

> <PUBCHEM_IUPAC_TRADITIONAL_NAME>
(1R)-N-(4-bromo-3-methyl-phenyl)cyclohex-3-ene-1-carboxamide

> <PUBCHEM_IUPAC_INCHI>
InChI=1S/C14H16BrNO/c1-10-9-12(7-8-13(10)15)16-14(17)11-5-3-2-4-6-11/h2-3,7-9,11H,4-6H2,1H3,(H,16,17)/t11-/m0/s1

> <PUBCHEM_IUPAC_INCHIKEY>
UDLQDYKVFRMXQI-NSHDSACASA-N

> <PUBCHEM_XLOGP3>
4.3

> <PUBCHEM_EXACT_MASS>
293.041526

> <PUBCHEM_MOLECULAR_FORMULA>
C14H16BrNO

> <PUBCHEM_MOLECULAR_WEIGHT>
294.18694

> <PUBCHEM_OPENEYE_CAN_SMILES>
CC1=C(C=CC(=C1)NC(=O)C2CCC=CC2)Br

> <PUBCHEM_OPENEYE_ISO_SMILES>
CC1=C(C=CC(=C1)NC(=O)[C@@H]2CCC=CC2)Br

> <PUBCHEM_CACTVS_TPSA>
29.1

> <PUBCHEM_MONOISOTOPIC_WEIGHT>
293.041526

> <PUBCHEM_TOTAL_CHARGE>
0

> <PUBCHEM_HEAVY_ATOM_COUNT>
17

> <PUBCHEM_ATOM_DEF_STEREO_COUNT>
1

> <PUBCHEM_ATOM_UDEF_STEREO_COUNT>
0

> <PUBCHEM_BOND_DEF_STEREO_COUNT>
0

> <PUBCHEM_BOND_UDEF_STEREO_COUNT>
0

> <PUBCHEM_ISOTOPIC_ATOM_COUNT>
0

> <PUBCHEM_COMPONENT_COUNT>
1

> <PUBCHEM_CACTVS_TAUTO_COUNT>
3

> <PUBCHEM_COORDINATE_TYPE>
1
5
255

> <PUBCHEM_BONDANNOTATIONS>
11  12  8
11  13  8
12  14  8
13  15  8
14  16  8
15  16  8
4  8  5

$$$$
9095988
  -OEChem-11301217062D

 33 34  0     1  0  0  0  0  0999 V2000
    3.7320   -3.7500    0.0000 Br  0  0  0  0  0  0  0  0  0  0  0  0
    5.4641    0.2500    0.0000 O   0  0  0  0  0  0  0  0  0  0  0  0
    3.7320    0.2500    0.0000 N   0  0  0  0  0  0  0  0  0  0  0  0
    4.5981    1.7500    0.0000 C   0  0  1  0  0  0  0  0  0  0  0  0
    5.4641    2.2500    0.0000 C   0  0  0  0  0  0  0  0  0  0  0  0
    3.7320    2.2500    0.0000 C   0  0  0  0  0  0  0  0  0  0  0  0
    5.4641    3.2500    0.0000 C   0  0  0  0  0  0  0  0  0  0  0  0
    4.5981    0.7500    0.0000 C   0  0  0  0  0  0  0  0  0  0  0  0
    3.7320    3.2500    0.0000 C   0  0  0  0  0  0  0  0  0  0  0  0
    4.5981    3.7500    0.0000 C   0  0  0  0  0  0  0  0  0  0  0  0
    3.7320   -0.7500    0.0000 C   0  0  0  0  0  0  0  0  0  0  0  0
    2.8660   -1.2500    0.0000 C   0  0  0  0  0  0  0  0  0  0  0  0
    4.5981   -1.2500    0.0000 C   0  0  0  0  0  0  0  0  0  0  0  0
    2.8660   -2.2500    0.0000 C   0  0  0  0  0  0  0  0  0  0  0  0
    4.5981   -2.2500    0.0000 C   0  0  0  0  0  0  0  0  0  0  0  0
    3.7320   -2.7500    0.0000 C   0  0  0  0  0  0  0  0  0  0  0  0
    2.0000   -2.7500    0.0000 C   0  0  0  0  0  0  0  0  0  0  0  0
    5.1350    1.4400    0.0000 H   0  0  0  0  0  0  0  0  0  0  0  0
    5.6762    1.6674    0.0000 H   0  0  0  0  0  0  0  0  0  0  0  0
    6.0747    2.3577    0.0000 H   0  0  0  0  0  0  0  0  0  0  0  0
    3.1215    2.3577    0.0000 H   0  0  0  0  0  0  0  0  0  0  0  0
    3.5200    1.6674    0.0000 H   0  0  0  0  0  0  0  0  0  0  0  0
    6.0747    3.1423    0.0000 H   0  0  0  0  0  0  0  0  0  0  0  0
    5.6762    3.8326    0.0000 H   0  0  0  0  0  0  0  0  0  0  0  0
    3.1951    3.5600    0.0000 H   0  0  0  0  0  0  0  0  0  0  0  0
    4.5981    4.3700    0.0000 H   0  0  0  0  0  0  0  0  0  0  0  0
    3.1951    0.5600    0.0000 H   0  0  0  0  0  0  0  0  0  0  0  0
    2.3291   -0.9400    0.0000 H   0  0  0  0  0  0  0  0  0  0  0  0
    5.1350   -0.9400    0.0000 H   0  0  0  0  0  0  0  0  0  0  0  0
    5.1350   -2.5600    0.0000 H   0  0  0  0  0  0  0  0  0  0  0  0
    1.6900   -2.2131    0.0000 H   0  0  0  0  0  0  0  0  0  0  0  0
    1.4631   -3.0600    0.0000 H   0  0  0  0  0  0  0  0  0  0  0  0
    2.3100   -3.2869    0.0000 H   0  0  0  0  0  0  0  0  0  0  0  0
  1 16  1  0  0  0  0
  2  8  2  0  0  0  0
  3  8  1  0  0  0  0
  3 11  1  0  0  0  0
  3 27  1  0  0  0  0
  4  5  1  0  0  0  0
  4  6  1  0  0  0  0
  4  8  1  6  0  0  0
  4 18  1  0  0  0  0
  5  7  1  0  0  0  0
  5 19  1  0  0  0  0
  5 20  1  0  0  0  0
  6  9  1  0  0  0  0
  6 21  1  0  0  0  0
  6 22  1  0  0  0  0
  7 10  1  0  0  0  0
  7 23  1  0  0  0  0
  7 24  1  0  0  0  0
  9 10  2  0  0  0  0
  9 25  1  0  0  0  0
 10 26  1  0  0  0  0
 11 12  2  0  0  0  0
 11 13  1  0  0  0  0
 12 14  1  0  0  0  0
 12 28  1  0  0  0  0
 13 15  2  0  0  0  0
 13 29  1  0  0  0  0
 14 16  2  0  0  0  0
 14 17  1  0  0  0  0
 15 16  1  0  0  0  0
 15 30  1  0  0  0  0
 17 31  1  0  0  0  0
 17 32  1  0  0  0  0
 17 33  1  0  0  0  0
M  END
> <PUBCHEM_COMPOUND_CID>
9095988

> <PUBCHEM_COMPOUND_CANONICALIZED>
1

> <PUBCHEM_CACTVS_COMPLEXITY>
303

> <PUBCHEM_CACTVS_HBOND_ACCEPTOR>
1

> <PUBCHEM_CACTVS_HBOND_DONOR>
1

> <PUBCHEM_CACTVS_ROTATABLE_BOND>
2

> <PUBCHEM_CACTVS_SUBSKEYS>
AAADceByIAAAEAAAAAAAAAAAAAAAAAAAAAAwQAAAAAAAAAABAAAAHgBQAAABrQiBmAAywILAAACIAiVSUACCAAAhAgQIiAEAZKgIIDLAkZGEIAhglADIyhcYgAAOAAAgQAAAgAAAAECAAAEAAAAAAAAAAA==

> <PUBCHEM_IUPAC_OPENEYE_NAME>
(1S)-N-(4-bromo-3-methyl-phenyl)cyclohex-3-ene-1-carboxamide

> <PUBCHEM_IUPAC_CAS_NAME>
(1S)-N-(4-bromo-3-methylphenyl)-1-cyclohex-3-enecarboxamide

> <PUBCHEM_IUPAC_NAME>
(1S)-N-(4-bromo-3-methylphenyl)cyclohex-3-ene-1-carboxamide

> <PUBCHEM_IUPAC_SYSTEMATIC_NAME>
(1S)-N-(4-bromanyl-3-methyl-phenyl)cyclohex-3-ene-1-carboxamide

> <PUBCHEM_IUPAC_TRADITIONAL_NAME>
(1S)-N-(4-bromo-3-methyl-phenyl)cyclohex-3-ene-1-carboxamide

> <PUBCHEM_IUPAC_INCHI>
InChI=1S/C14H16BrNO/c1-10-9-12(7-8-13(10)15)16-14(17)11-5-3-2-4-6-11/h2-3,7-9,11H,4-6H2,1H3,(H,16,17)/t11-/m1/s1

> <PUBCHEM_IUPAC_INCHIKEY>
UDLQDYKVFRMXQI-LLVKDONJSA-N

> <PUBCHEM_XLOGP3>
4.3

> <PUBCHEM_EXACT_MASS>
293.041526

> <PUBCHEM_MOLECULAR_FORMULA>
C14H16BrNO

> <PUBCHEM_MOLECULAR_WEIGHT>
294.18694

> <PUBCHEM_OPENEYE_CAN_SMILES>
CC1=C(C=CC(=C1)NC(=O)C2CCC=CC2)Br

> <PUBCHEM_OPENEYE_ISO_SMILES>
CC1=C(C=CC(=C1)NC(=O)[C@H]2CCC=CC2)Br

> <PUBCHEM_CACTVS_TPSA>
29.1

> <PUBCHEM_MONOISOTOPIC_WEIGHT>
293.041526

> <PUBCHEM_TOTAL_CHARGE>
0

> <PUBCHEM_HEAVY_ATOM_COUNT>
17

> <PUBCHEM_ATOM_DEF_STEREO_COUNT>
1

> <PUBCHEM_ATOM_UDEF_STEREO_COUNT>
0

> <PUBCHEM_BOND_DEF_STEREO_COUNT>
0

> <PUBCHEM_BOND_UDEF_STEREO_COUNT>
0

> <PUBCHEM_ISOTOPIC_ATOM_COUNT>
0

> <PUBCHEM_COMPONENT_COUNT>
1

> <PUBCHEM_CACTVS_TAUTO_COUNT>
3

> <PUBCHEM_COORDINATE_TYPE>
1
5
255

> <PUBCHEM_BONDANNOTATIONS>
11  12  8
11  13  8
12  14  8
13  15  8
14  16  8
15  16  8
4  8  6

$$$$
