27101836
  -OEChem-12041211312D

 25 26  0     0  0  0  0  0  0999 V2000
    2.0000   -1.9330    0.0000 Cl  0  0  0  0  0  0  0  0  0  0  0  0
    3.7320   -2.9330    0.0000 Cl  0  0  0  0  0  0  0  0  0  0  0  0
    4.5981    1.5670    0.0000 N   0  3  0  0  0  0  0  0  0  0  0  0
    5.4641    2.0670    0.0000 C   0  0  0  0  0  0  0  0  0  0  0  0
    6.4641    2.0670    0.0000 C   0  0  0  0  0  0  0  0  0  0  0  0
    5.9641    2.9330    0.0000 C   0  0  0  0  0  0  0  0  0  0  0  0
    3.7320    1.0670    0.0000 C   0  0  0  0  0  0  0  0  0  0  0  0
    3.7320    0.0670    0.0000 C   0  0  0  0  0  0  0  0  0  0  0  0
    2.8660   -0.4330    0.0000 C   0  0  0  0  0  0  0  0  0  0  0  0
    4.5981   -0.4330    0.0000 C   0  0  0  0  0  0  0  0  0  0  0  0
    2.8660   -1.4330    0.0000 C   0  0  0  0  0  0  0  0  0  0  0  0
    4.5981   -1.4330    0.0000 C   0  0  0  0  0  0  0  0  0  0  0  0
    3.7320   -1.9330    0.0000 C   0  0  0  0  0  0  0  0  0  0  0  0
    5.6246    1.4681    0.0000 H   0  0  0  0  0  0  0  0  0  0  0  0
    6.5718    1.4564    0.0000 H   0  0  0  0  0  0  0  0  0  0  0  0
    7.0467    2.2790    0.0000 H   0  0  0  0  0  0  0  0  0  0  0  0
    6.4390    3.3315    0.0000 H   0  0  0  0  0  0  0  0  0  0  0  0
    5.4892    3.3315    0.0000 H   0  0  0  0  0  0  0  0  0  0  0  0
    4.2881    2.1039    0.0000 H   0  0  0  0  0  0  0  0  0  0  0  0
    4.9081    1.0300    0.0000 H   0  0  0  0  0  0  0  0  0  0  0  0
    3.5200    1.6496    0.0000 H   0  0  0  0  0  0  0  0  0  0  0  0
    3.1215    0.9593    0.0000 H   0  0  0  0  0  0  0  0  0  0  0  0
    2.3291   -0.1230    0.0000 H   0  0  0  0  0  0  0  0  0  0  0  0
    5.1350   -0.1230    0.0000 H   0  0  0  0  0  0  0  0  0  0  0  0
    5.1350   -1.7430    0.0000 H   0  0  0  0  0  0  0  0  0  0  0  0
  1 11  1  0  0  0  0
  2 13  1  0  0  0  0
  3  4  1  0  0  0  0
  3  7  1  0  0  0  0
  3 19  1  0  0  0  0
  3 20  1  0  0  0  0
  4  5  1  0  0  0  0
  4  6  1  0  0  0  0
  4 14  1  0  0  0  0
  5  6  1  0  0  0  0
  5 15  1  0  0  0  0
  5 16  1  0  0  0  0
  6 17  1  0  0  0  0
  6 18  1  0  0  0  0
  7  8  1  0  0  0  0
  7 21  1  0  0  0  0
  7 22  1  0  0  0  0
  8  9  2  0  0  0  0
  8 10  1  0  0  0  0
  9 11  1  0  0  0  0
  9 23  1  0  0  0  0
 10 12  2  0  0  0  0
 10 24  1  0  0  0  0
 11 13  2  0  0  0  0
 12 13  1  0  0  0  0
 12 25  1  0  0  0  0
M  CHG  1   3   1
M  END
> <PUBCHEM_COMPOUND_CID>
27101836

> <PUBCHEM_COMPOUND_CANONICALIZED>
1

> <PUBCHEM_CACTVS_COMPLEXITY>
170

> <PUBCHEM_CACTVS_HBOND_ACCEPTOR>
0

> <PUBCHEM_CACTVS_HBOND_DONOR>
1

> <PUBCHEM_CACTVS_ROTATABLE_BOND>
3

> <PUBCHEM_CACTVS_SUBSKEYS>
AAADccByAAAGAAAAAAAAAAAAGAAAAAAAAAAwAAAAAAAAAAABAAAAHAIQAAAADCrBGCQwAILAAACAAiBCAACCAAAgBQAIisAIBogIICKBkxGEIAhgkACIiAcQgAAOBAAAIAAAAAQIAABAAAAACAAAAAAAAA==

> <PUBCHEM_IUPAC_OPENEYE_NAME>
cyclopropyl-[(3,4-dichlorophenyl)methyl]ammonium

> <PUBCHEM_IUPAC_CAS_NAME>
cyclopropyl-[(3,4-dichlorophenyl)methyl]ammonium

> <PUBCHEM_IUPAC_NAME>
cyclopropyl-[(3,4-dichlorophenyl)methyl]azanium

> <PUBCHEM_IUPAC_SYSTEMATIC_NAME>
cyclopropyl-[(3,4-dichlorophenyl)methyl]azanium

> <PUBCHEM_IUPAC_TRADITIONAL_NAME>
cyclopropyl-(3,4-dichlorobenzyl)ammonium

> <PUBCHEM_IUPAC_INCHI>
InChI=1S/C10H11Cl2N/c11-9-4-1-7(5-10(9)12)6-13-8-2-3-8/h1,4-5,8,13H,2-3,6H2/p+1

> <PUBCHEM_IUPAC_INCHIKEY>
ARVDJBARMJFVNT-UHFFFAOYSA-O

> <PUBCHEM_XLOGP3>
3.5

> <PUBCHEM_EXACT_MASS>
216.03468

> <PUBCHEM_MOLECULAR_FORMULA>
C10H12Cl2N+

> <PUBCHEM_MOLECULAR_WEIGHT>
217.11498

> <PUBCHEM_OPENEYE_CAN_SMILES>
C1CC1[NH2+]CC2=CC(=C(C=C2)Cl)Cl

> <PUBCHEM_OPENEYE_ISO_SMILES>
C1CC1[NH2+]CC2=CC(=C(C=C2)Cl)Cl

> <PUBCHEM_CACTVS_TPSA>
16.6

> <PUBCHEM_MONOISOTOPIC_WEIGHT>
216.03468

> <PUBCHEM_TOTAL_CHARGE>
1

> <PUBCHEM_HEAVY_ATOM_COUNT>
13

> <PUBCHEM_ATOM_DEF_STEREO_COUNT>
0

> <PUBCHEM_ATOM_UDEF_STEREO_COUNT>
0

> <PUBCHEM_BOND_DEF_STEREO_COUNT>
0

> <PUBCHEM_BOND_UDEF_STEREO_COUNT>
0

> <PUBCHEM_ISOTOPIC_ATOM_COUNT>
0

> <PUBCHEM_COMPONENT_COUNT>
1

> <PUBCHEM_CACTVS_TAUTO_COUNT>
1

> <PUBCHEM_COORDINATE_TYPE>
1
5
255

> <PUBCHEM_BONDANNOTATIONS>
10  12  8
11  13  8
12  13  8
8  10  8
8  9  8
9  11  8

$$$$
27101867
  -OEChem-12041211312D

 25 26  0     0  0  0  0  0  0999 V2000
    2.0000    0.0670    0.0000 Cl  0  0  0  0  0  0  0  0  0  0  0  0
    3.7320   -2.9330    0.0000 Cl  0  0  0  0  0  0  0  0  0  0  0  0
    4.5981    1.5670    0.0000 N   0  3  0  0  0  0  0  0  0  0  0  0
    5.4641    2.0670    0.0000 C   0  0  0  0  0  0  0  0  0  0  0  0
    6.4641    2.0670    0.0000 C   0  0  0  0  0  0  0  0  0  0  0  0
    5.9641    2.9330    0.0000 C   0  0  0  0  0  0  0  0  0  0  0  0
    3.7320    1.0670    0.0000 C   0  0  0  0  0  0  0  0  0  0  0  0
    3.7320    0.0670    0.0000 C   0  0  0  0  0  0  0  0  0  0  0  0
    2.8660   -0.4330    0.0000 C   0  0  0  0  0  0  0  0  0  0  0  0
    4.5981   -0.4330    0.0000 C   0  0  0  0  0  0  0  0  0  0  0  0
    2.8660   -1.4330    0.0000 C   0  0  0  0  0  0  0  0  0  0  0  0
    4.5981   -1.4330    0.0000 C   0  0  0  0  0  0  0  0  0  0  0  0
    3.7320   -1.9330    0.0000 C   0  0  0  0  0  0  0  0  0  0  0  0
    5.6246    1.4681    0.0000 H   0  0  0  0  0  0  0  0  0  0  0  0
    6.5718    1.4564    0.0000 H   0  0  0  0  0  0  0  0  0  0  0  0
    7.0467    2.2790    0.0000 H   0  0  0  0  0  0  0  0  0  0  0  0
    6.4390    3.3315    0.0000 H   0  0  0  0  0  0  0  0  0  0  0  0
    5.4892    3.3315    0.0000 H   0  0  0  0  0  0  0  0  0  0  0  0
    4.2881    2.1039    0.0000 H   0  0  0  0  0  0  0  0  0  0  0  0
    4.9081    1.0300    0.0000 H   0  0  0  0  0  0  0  0  0  0  0  0
    3.5200    1.6496    0.0000 H   0  0  0  0  0  0  0  0  0  0  0  0
    3.1215    0.9593    0.0000 H   0  0  0  0  0  0  0  0  0  0  0  0
    5.1350   -0.1230    0.0000 H   0  0  0  0  0  0  0  0  0  0  0  0
    2.3291   -1.7430    0.0000 H   0  0  0  0  0  0  0  0  0  0  0  0
    5.1350   -1.7430    0.0000 H   0  0  0  0  0  0  0  0  0  0  0  0
  1  9  1  0  0  0  0
  2 13  1  0  0  0  0
  3  4  1  0  0  0  0
  3  7  1  0  0  0  0
  3 19  1  0  0  0  0
  3 20  1  0  0  0  0
  4  5  1  0  0  0  0
  4  6  1  0  0  0  0
  4 14  1  0  0  0  0
  5  6  1  0  0  0  0
  5 15  1  0  0  0  0
  5 16  1  0  0  0  0
  6 17  1  0  0  0  0
  6 18  1  0  0  0  0
  7  8  1  0  0  0  0
  7 21  1  0  0  0  0
  7 22  1  0  0  0  0
  8  9  2  0  0  0  0
  8 10  1  0  0  0  0
  9 11  1  0  0  0  0
 10 12  2  0  0  0  0
 10 23  1  0  0  0  0
 11 13  2  0  0  0  0
 11 24  1  0  0  0  0
 12 13  1  0  0  0  0
 12 25  1  0  0  0  0
M  CHG  1   3   1
M  END
> <PUBCHEM_COMPOUND_CID>
27101867

> <PUBCHEM_COMPOUND_CANONICALIZED>
1

> <PUBCHEM_CACTVS_COMPLEXITY>
170

> <PUBCHEM_CACTVS_HBOND_ACCEPTOR>
0

> <PUBCHEM_CACTVS_HBOND_DONOR>
1

> <PUBCHEM_CACTVS_ROTATABLE_BOND>
3

> <PUBCHEM_CACTVS_SUBSKEYS>
AAADccByAAAGAAAAAAAAAAAAGAAAAAAAAAAwAAAAAAAAAAABAAAAHAIQAAAADCrBGCQwAILAAACAAiBCAACCAAAgBQAIiIAIBogIICKBkxGEIAhgkACIiAcQgAAOBAAAAACBAAAIAAAAAQIAAAAAAAAAAA==

> <PUBCHEM_IUPAC_OPENEYE_NAME>
cyclopropyl-[(2,4-dichlorophenyl)methyl]ammonium

> <PUBCHEM_IUPAC_CAS_NAME>
cyclopropyl-[(2,4-dichlorophenyl)methyl]ammonium

> <PUBCHEM_IUPAC_NAME>
cyclopropyl-[(2,4-dichlorophenyl)methyl]azanium

> <PUBCHEM_IUPAC_SYSTEMATIC_NAME>
cyclopropyl-[(2,4-dichlorophenyl)methyl]azanium

> <PUBCHEM_IUPAC_TRADITIONAL_NAME>
cyclopropyl-(2,4-dichlorobenzyl)ammonium

> <PUBCHEM_IUPAC_INCHI>
InChI=1S/C10H11Cl2N/c11-8-2-1-7(10(12)5-8)6-13-9-3-4-9/h1-2,5,9,13H,3-4,6H2/p+1

> <PUBCHEM_IUPAC_INCHIKEY>
ISNLISSGALOLGC-UHFFFAOYSA-O

> <PUBCHEM_XLOGP3>
3.4

> <PUBCHEM_EXACT_MASS>
216.03468

> <PUBCHEM_MOLECULAR_FORMULA>
C10H12Cl2N+

> <PUBCHEM_MOLECULAR_WEIGHT>
217.11498

> <PUBCHEM_OPENEYE_CAN_SMILES>
C1CC1[NH2+]CC2=C(C=C(C=C2)Cl)Cl

> <PUBCHEM_OPENEYE_ISO_SMILES>
C1CC1[NH2+]CC2=C(C=C(C=C2)Cl)Cl

> <PUBCHEM_CACTVS_TPSA>
16.6

> <PUBCHEM_MONOISOTOPIC_WEIGHT>
216.03468

> <PUBCHEM_TOTAL_CHARGE>
1

> <PUBCHEM_HEAVY_ATOM_COUNT>
13

> <PUBCHEM_ATOM_DEF_STEREO_COUNT>
0

> <PUBCHEM_ATOM_UDEF_STEREO_COUNT>
0

> <PUBCHEM_BOND_DEF_STEREO_COUNT>
0

> <PUBCHEM_BOND_UDEF_STEREO_COUNT>
0

> <PUBCHEM_ISOTOPIC_ATOM_COUNT>
0

> <PUBCHEM_COMPONENT_COUNT>
1

> <PUBCHEM_CACTVS_TAUTO_COUNT>
1

> <PUBCHEM_COORDINATE_TYPE>
1
5
255

> <PUBCHEM_BONDANNOTATIONS>
10  12  8
11  13  8
12  13  8
8  10  8
8  9  8
9  11  8

$$$$
27108663
  -OEChem-12041211312D

 42 45  0     0  0  0  0  0  0999 V2000
    5.4050    3.6801    0.0000 Cl  0  0  0  0  0  0  0  0  0  0  0  0
    3.6730   -0.3199    0.0000 N   0  3  0  0  0  0  0  0  0  0  0  0
    3.6730   -1.3199    0.0000 C   0  0  0  0  0  0  0  0  0  0  0  0
    4.5092   -2.7682    0.0000 C   0  0  0  0  0  0  0  0  0  0  0  0
    2.8368   -2.7682    0.0000 C   0  0  0  0  0  0  0  0  0  0  0  0
    2.9819   -3.2033    0.0000 C   0  0  0  0  0  0  0  0  0  0  0  0
    4.5092   -1.8027    0.0000 C   0  0  0  0  0  0  0  0  0  0  0  0
    2.8368   -1.8027    0.0000 C   0  0  0  0  0  0  0  0  0  0  0  0
    2.9819   -2.1580    0.0000 C   0  0  0  0  0  0  0  0  0  0  0  0
    3.6730   -3.0710    0.0000 C   0  0  0  0  0  0  0  0  0  0  0  0
    3.8876   -3.6801    0.0000 C   0  0  0  0  0  0  0  0  0  0  0  0
    2.0000   -3.2510    0.0000 C   0  0  0  0  0  0  0  0  0  0  0  0
    3.6730    0.6801    0.0000 C   0  0  0  0  0  0  0  0  0  0  0  0
    4.5390    1.1801    0.0000 C   0  0  0  0  0  0  0  0  0  0  0  0
    4.5390    2.1801    0.0000 C   0  0  0  0  0  0  0  0  0  0  0  0
    5.4050    0.6801    0.0000 C   0  0  0  0  0  0  0  0  0  0  0  0
    5.4050    2.6801    0.0000 C   0  0  0  0  0  0  0  0  0  0  0  0
    6.2711    1.1801    0.0000 C   0  0  0  0  0  0  0  0  0  0  0  0
    6.2711    2.1801    0.0000 C   0  0  0  0  0  0  0  0  0  0  0  0
    2.8912   -3.3858    0.0000 H   0  0  0  0  0  0  0  0  0  0  0  0
    5.1016   -2.9509    0.0000 H   0  0  0  0  0  0  0  0  0  0  0  0
    2.8478   -3.8086    0.0000 H   0  0  0  0  0  0  0  0  0  0  0  0
    5.1198   -1.9103    0.0000 H   0  0  0  0  0  0  0  0  0  0  0  0
    4.7212   -1.2201    0.0000 H   0  0  0  0  0  0  0  0  0  0  0  0
    2.6247   -1.2201    0.0000 H   0  0  0  0  0  0  0  0  0  0  0  0
    2.2262   -1.9103    0.0000 H   0  0  0  0  0  0  0  0  0  0  0  0
    2.6383   -1.6420    0.0000 H   0  0  0  0  0  0  0  0  0  0  0  0
    2.3885   -2.3375    0.0000 H   0  0  0  0  0  0  0  0  0  0  0  0
    3.5782   -4.2174    0.0000 H   0  0  0  0  0  0  0  0  0  0  0  0
    4.4127   -4.0097    0.0000 H   0  0  0  0  0  0  0  0  0  0  0  0
    1.5188   -2.8601    0.0000 H   0  0  0  0  0  0  0  0  0  0  0  0
    1.8068   -3.8401    0.0000 H   0  0  0  0  0  0  0  0  0  0  0  0
    3.3030   -3.5685    0.0000 H   0  0  0  0  0  0  0  0  0  0  0  0
    4.0430   -3.5685    0.0000 H   0  0  0  0  0  0  0  0  0  0  0  0
    4.2930   -0.3199    0.0000 H   0  0  0  0  0  0  0  0  0  0  0  0
    3.0530   -0.3199    0.0000 H   0  0  0  0  0  0  0  0  0  0  0  0
    3.4609    1.2627    0.0000 H   0  0  0  0  0  0  0  0  0  0  0  0
    3.0624    0.5724    0.0000 H   0  0  0  0  0  0  0  0  0  0  0  0
    4.0021    2.4901    0.0000 H   0  0  0  0  0  0  0  0  0  0  0  0
    5.4050    0.0601    0.0000 H   0  0  0  0  0  0  0  0  0  0  0  0
    6.8080    0.8701    0.0000 H   0  0  0  0  0  0  0  0  0  0  0  0
    6.8080    2.4901    0.0000 H   0  0  0  0  0  0  0  0  0  0  0  0
  1 17  1  0  0  0  0
  2  3  1  0  0  0  0
  2 13  1  0  0  0  0
  2 35  1  0  0  0  0
  2 36  1  0  0  0  0
  3  7  1  0  0  0  0
  3  8  1  0  0  0  0
  3  9  1  0  0  0  0
  4  7  1  0  0  0  0
  4 10  1  0  0  0  0
  4 11  1  0  0  0  0
  4 21  1  0  0  0  0
  5  8  1  0  0  0  0
  5 10  1  0  0  0  0
  5 12  1  0  0  0  0
  5 20  1  0  0  0  0
  6  9  1  0  0  0  0
  6 11  1  0  0  0  0
  6 12  1  0  0  0  0
  6 22  1  0  0  0  0
  7 23  1  0  0  0  0
  7 24  1  0  0  0  0
  8 25  1  0  0  0  0
  8 26  1  0  0  0  0
  9 27  1  0  0  0  0
  9 28  1  0  0  0  0
 10 33  1  0  0  0  0
 10 34  1  0  0  0  0
 11 29  1  0  0  0  0
 11 30  1  0  0  0  0
 12 31  1  0  0  0  0
 12 32  1  0  0  0  0
 13 14  1  0  0  0  0
 13 37  1  0  0  0  0
 13 38  1  0  0  0  0
 14 15  2  0  0  0  0
 14 16  1  0  0  0  0
 15 17  1  0  0  0  0
 15 39  1  0  0  0  0
 16 18  2  0  0  0  0
 16 40  1  0  0  0  0
 17 19  2  0  0  0  0
 18 19  1  0  0  0  0
 18 41  1  0  0  0  0
 19 42  1  0  0  0  0
M  CHG  1   2   1
M  END
> <PUBCHEM_COMPOUND_CID>
27108663

> <PUBCHEM_COMPOUND_CANONICALIZED>
1

> <PUBCHEM_CACTVS_COMPLEXITY>
299

> <PUBCHEM_CACTVS_HBOND_ACCEPTOR>
0

> <PUBCHEM_CACTVS_HBOND_DONOR>
1

> <PUBCHEM_CACTVS_ROTATABLE_BOND>
3

> <PUBCHEM_CACTVS_SUBSKEYS>
AAADceB6AAAEAAAAAAAAAAAAAAAAAAAAAAAwYMGDAAAAAAABAAAAHAIQAAAADYrBGCQwAILAAACAAiBCAACCAAAgBQAIiIAIBogIICKBkxGEIAhgkACIiAcQgMAOAAAAIAAAAAAAAATAAAAAAAAAAAAAAA==

> <PUBCHEM_IUPAC_OPENEYE_NAME>
1-adamantyl-[(3-chlorophenyl)methyl]ammonium

> <PUBCHEM_IUPAC_CAS_NAME>
1-adamantyl-[(3-chlorophenyl)methyl]ammonium

> <PUBCHEM_IUPAC_NAME>
1-adamantyl-[(3-chlorophenyl)methyl]azanium

> <PUBCHEM_IUPAC_SYSTEMATIC_NAME>
1-adamantyl-[(3-chlorophenyl)methyl]azanium

> <PUBCHEM_IUPAC_TRADITIONAL_NAME>
1-adamantyl-(3-chlorobenzyl)ammonium

> <PUBCHEM_IUPAC_INCHI>
InChI=1S/C17H22ClN/c18-16-3-1-2-12(7-16)11-19-17-8-13-4-14(9-17)6-15(5-13)10-17/h1-3,7,13-15,19H,4-6,8-11H2/p+1

> <PUBCHEM_IUPAC_INCHIKEY>
DZRCNOZUGSTYDL-UHFFFAOYSA-O

> <PUBCHEM_XLOGP3>
4.9

> <PUBCHEM_EXACT_MASS>
276.151902

> <PUBCHEM_MOLECULAR_FORMULA>
C17H23ClN+

> <PUBCHEM_MOLECULAR_WEIGHT>
276.82422

> <PUBCHEM_OPENEYE_CAN_SMILES>
C1C2CC3CC1CC(C2)(C3)[NH2+]CC4=CC(=CC=C4)Cl

> <PUBCHEM_OPENEYE_ISO_SMILES>
C1C2CC3CC1CC(C2)(C3)[NH2+]CC4=CC(=CC=C4)Cl

> <PUBCHEM_CACTVS_TPSA>
16.6

> <PUBCHEM_MONOISOTOPIC_WEIGHT>
276.151902

> <PUBCHEM_TOTAL_CHARGE>
1

> <PUBCHEM_HEAVY_ATOM_COUNT>
19

> <PUBCHEM_ATOM_DEF_STEREO_COUNT>
0

> <PUBCHEM_ATOM_UDEF_STEREO_COUNT>
0

> <PUBCHEM_BOND_DEF_STEREO_COUNT>
0

> <PUBCHEM_BOND_UDEF_STEREO_COUNT>
0

> <PUBCHEM_ISOTOPIC_ATOM_COUNT>
0

> <PUBCHEM_COMPONENT_COUNT>
1

> <PUBCHEM_CACTVS_TAUTO_COUNT>
1

> <PUBCHEM_COORDINATE_TYPE>
1
5
255

> <PUBCHEM_BONDANNOTATIONS>
14  15  8
14  16  8
15  17  8
16  18  8
17  19  8
18  19  8

$$$$
27108665
  -OEChem-12041211312D

 25 26  0     0  0  0  0  0  0999 V2000
    2.0000   -2.4330    0.0000 Cl  0  0  0  0  0  0  0  0  0  0  0  0
    4.5981    1.0670    0.0000 N   0  3  0  0  0  0  0  0  0  0  0  0
    5.4641    1.5670    0.0000 C   0  0  0  0  0  0  0  0  0  0  0  0
    6.4641    1.5670    0.0000 C   0  0  0  0  0  0  0  0  0  0  0  0
    5.9641    2.4330    0.0000 C   0  0  0  0  0  0  0  0  0  0  0  0
    3.7320    0.5670    0.0000 C   0  0  0  0  0  0  0  0  0  0  0  0
    3.7320   -0.4330    0.0000 C   0  0  0  0  0  0  0  0  0  0  0  0
    2.8660   -0.9330    0.0000 C   0  0  0  0  0  0  0  0  0  0  0  0
    4.5981   -0.9330    0.0000 C   0  0  0  0  0  0  0  0  0  0  0  0
    2.8660   -1.9330    0.0000 C   0  0  0  0  0  0  0  0  0  0  0  0
    4.5981   -1.9330    0.0000 C   0  0  0  0  0  0  0  0  0  0  0  0
    3.7320   -2.4330    0.0000 C   0  0  0  0  0  0  0  0  0  0  0  0
    5.6246    0.9681    0.0000 H   0  0  0  0  0  0  0  0  0  0  0  0
    6.5718    0.9564    0.0000 H   0  0  0  0  0  0  0  0  0  0  0  0
    7.0467    1.7790    0.0000 H   0  0  0  0  0  0  0  0  0  0  0  0
    6.4390    2.8315    0.0000 H   0  0  0  0  0  0  0  0  0  0  0  0
    5.4892    2.8315    0.0000 H   0  0  0  0  0  0  0  0  0  0  0  0
    4.2881    1.6039    0.0000 H   0  0  0  0  0  0  0  0  0  0  0  0
    4.9081    0.5301    0.0000 H   0  0  0  0  0  0  0  0  0  0  0  0
    3.5200    1.1496    0.0000 H   0  0  0  0  0  0  0  0  0  0  0  0
    3.1215    0.4593    0.0000 H   0  0  0  0  0  0  0  0  0  0  0  0
    2.3291   -0.6230    0.0000 H   0  0  0  0  0  0  0  0  0  0  0  0
    5.1350   -0.6230    0.0000 H   0  0  0  0  0  0  0  0  0  0  0  0
    5.1350   -2.2430    0.0000 H   0  0  0  0  0  0  0  0  0  0  0  0
    3.7320   -3.0530    0.0000 H   0  0  0  0  0  0  0  0  0  0  0  0
  1 10  1  0  0  0  0
  2  3  1  0  0  0  0
  2  6  1  0  0  0  0
  2 18  1  0  0  0  0
  2 19  1  0  0  0  0
  3  4  1  0  0  0  0
  3  5  1  0  0  0  0
  3 13  1  0  0  0  0
  4  5  1  0  0  0  0
  4 14  1  0  0  0  0
  4 15  1  0  0  0  0
  5 16  1  0  0  0  0
  5 17  1  0  0  0  0
  6  7  1  0  0  0  0
  6 20  1  0  0  0  0
  6 21  1  0  0  0  0
  7  8  2  0  0  0  0
  7  9  1  0  0  0  0
  8 10  1  0  0  0  0
  8 22  1  0  0  0  0
  9 11  2  0  0  0  0
  9 23  1  0  0  0  0
 10 12  2  0  0  0  0
 11 12  1  0  0  0  0
 11 24  1  0  0  0  0
 12 25  1  0  0  0  0
M  CHG  1   2   1
M  END
> <PUBCHEM_COMPOUND_CID>
27108665

> <PUBCHEM_COMPOUND_CANONICALIZED>
1

> <PUBCHEM_CACTVS_COMPLEXITY>
145

> <PUBCHEM_CACTVS_HBOND_ACCEPTOR>
0

> <PUBCHEM_CACTVS_HBOND_DONOR>
1

> <PUBCHEM_CACTVS_ROTATABLE_BOND>
3

> <PUBCHEM_CACTVS_SUBSKEYS>
AAADccByAAAEAAAAAAAAAAAAGAAAAAAAAAAwAAAAAAAAAAABAAAAHAIQAAAADCrBGCQwAILAAACAAiBCAACCAAAgBQAIiIAIBogIICKBkxGEIAhgkACIiAcQgAAOAAAAIAAAAAAAAABAAAAAAAAAAAAAAA==

> <PUBCHEM_IUPAC_OPENEYE_NAME>
(3-chlorophenyl)methyl-cyclopropyl-ammonium

> <PUBCHEM_IUPAC_CAS_NAME>
(3-chlorophenyl)methyl-cyclopropylammonium

> <PUBCHEM_IUPAC_NAME>
(3-chlorophenyl)methyl-cyclopropylazanium

> <PUBCHEM_IUPAC_SYSTEMATIC_NAME>
(3-chlorophenyl)methyl-cyclopropyl-azanium

> <PUBCHEM_IUPAC_TRADITIONAL_NAME>
(3-chlorobenzyl)-cyclopropyl-ammonium

> <PUBCHEM_IUPAC_INCHI>
InChI=1S/C10H12ClN/c11-9-3-1-2-8(6-9)7-12-10-4-5-10/h1-3,6,10,12H,4-5,7H2/p+1

> <PUBCHEM_IUPAC_INCHIKEY>
VALINFAZSMPKJJ-UHFFFAOYSA-O

> <PUBCHEM_XLOGP3>
2.7

> <PUBCHEM_EXACT_MASS>
182.073652

> <PUBCHEM_MOLECULAR_FORMULA>
C10H13ClN+

> <PUBCHEM_MOLECULAR_WEIGHT>
182.66992

> <PUBCHEM_OPENEYE_CAN_SMILES>
C1CC1[NH2+]CC2=CC(=CC=C2)Cl

> <PUBCHEM_OPENEYE_ISO_SMILES>
C1CC1[NH2+]CC2=CC(=CC=C2)Cl

> <PUBCHEM_CACTVS_TPSA>
16.6

> <PUBCHEM_MONOISOTOPIC_WEIGHT>
182.073652

> <PUBCHEM_TOTAL_CHARGE>
1

> <PUBCHEM_HEAVY_ATOM_COUNT>
12

> <PUBCHEM_ATOM_DEF_STEREO_COUNT>
0

> <PUBCHEM_ATOM_UDEF_STEREO_COUNT>
0

> <PUBCHEM_BOND_DEF_STEREO_COUNT>
0

> <PUBCHEM_BOND_UDEF_STEREO_COUNT>
0

> <PUBCHEM_ISOTOPIC_ATOM_COUNT>
0

> <PUBCHEM_COMPONENT_COUNT>
1

> <PUBCHEM_CACTVS_TAUTO_COUNT>
1

> <PUBCHEM_COORDINATE_TYPE>
1
5
255

> <PUBCHEM_BONDANNOTATIONS>
10  12  8
11  12  8
7  8  8
7  9  8
8  10  8
9  11  8

$$$$
27108666
  -OEChem-12041211312D

 31 32  0     0  0  0  0  0  0999 V2000
    2.0000   -2.6012    0.0000 Cl  0  0  0  0  0  0  0  0  0  0  0  0
    4.5981    0.8988    0.0000 N   0  3  0  0  0  0  0  0  0  0  0  0
    5.4641    1.3988    0.0000 C   0  0  0  0  0  0  0  0  0  0  0  0
    6.3776    0.9920    0.0000 C   0  0  0  0  0  0  0  0  0  0  0  0
    5.5686    2.3933    0.0000 C   0  0  0  0  0  0  0  0  0  0  0  0
    7.0468    1.7352    0.0000 C   0  0  0  0  0  0  0  0  0  0  0  0
    6.5468    2.6012    0.0000 C   0  0  0  0  0  0  0  0  0  0  0  0
    3.7320    0.3988    0.0000 C   0  0  0  0  0  0  0  0  0  0  0  0
    3.7320   -0.6012    0.0000 C   0  0  0  0  0  0  0  0  0  0  0  0
    2.8660   -1.1012    0.0000 C   0  0  0  0  0  0  0  0  0  0  0  0
    4.5981   -1.1012    0.0000 C   0  0  0  0  0  0  0  0  0  0  0  0
    2.8660   -2.1012    0.0000 C   0  0  0  0  0  0  0  0  0  0  0  0
    4.5981   -2.1012    0.0000 C   0  0  0  0  0  0  0  0  0  0  0  0
    3.7320   -2.6012    0.0000 C   0  0  0  0  0  0  0  0  0  0  0  0
    4.9441    1.7365    0.0000 H   0  0  0  0  0  0  0  0  0  0  0  0
    6.0677    0.4551    0.0000 H   0  0  0  0  0  0  0  0  0  0  0  0
    6.8792    0.6276    0.0000 H   0  0  0  0  0  0  0  0  0  0  0  0
    5.5038    3.0099    0.0000 H   0  0  0  0  0  0  0  0  0  0  0  0
    4.9486    2.3933    0.0000 H   0  0  0  0  0  0  0  0  0  0  0  0
    7.4616    1.2744    0.0000 H   0  0  0  0  0  0  0  0  0  0  0  0
    7.5484    2.0996    0.0000 H   0  0  0  0  0  0  0  0  0  0  0  0
    7.1132    2.8534    0.0000 H   0  0  0  0  0  0  0  0  0  0  0  0
    6.3552    3.1909    0.0000 H   0  0  0  0  0  0  0  0  0  0  0  0
    4.2881    1.4357    0.0000 H   0  0  0  0  0  0  0  0  0  0  0  0
    4.9081    0.3618    0.0000 H   0  0  0  0  0  0  0  0  0  0  0  0
    3.5200    0.9814    0.0000 H   0  0  0  0  0  0  0  0  0  0  0  0
    3.1215    0.2911    0.0000 H   0  0  0  0  0  0  0  0  0  0  0  0
    2.3291   -0.7912    0.0000 H   0  0  0  0  0  0  0  0  0  0  0  0
    5.1350   -0.7912    0.0000 H   0  0  0  0  0  0  0  0  0  0  0  0
    5.1350   -2.4112    0.0000 H   0  0  0  0  0  0  0  0  0  0  0  0
    3.7320   -3.2212    0.0000 H   0  0  0  0  0  0  0  0  0  0  0  0
  1 12  1  0  0  0  0
  2  3  1  0  0  0  0
  2  8  1  0  0  0  0
  2 24  1  0  0  0  0
  2 25  1  0  0  0  0
  3  4  1  0  0  0  0
  3  5  1  0  0  0  0
  3 15  1  0  0  0  0
  4  6  1  0  0  0  0
  4 16  1  0  0  0  0
  4 17  1  0  0  0  0
  5  7  1  0  0  0  0
  5 18  1  0  0  0  0
  5 19  1  0  0  0  0
  6  7  1  0  0  0  0
  6 20  1  0  0  0  0
  6 21  1  0  0  0  0
  7 22  1  0  0  0  0
  7 23  1  0  0  0  0
  8  9  1  0  0  0  0
  8 26  1  0  0  0  0
  8 27  1  0  0  0  0
  9 10  2  0  0  0  0
  9 11  1  0  0  0  0
 10 12  1  0  0  0  0
 10 28  1  0  0  0  0
 11 13  2  0  0  0  0
 11 29  1  0  0  0  0
 12 14  2  0  0  0  0
 13 14  1  0  0  0  0
 13 30  1  0  0  0  0
 14 31  1  0  0  0  0
M  CHG  1   2   1
M  END
> <PUBCHEM_COMPOUND_CID>
27108666

> <PUBCHEM_COMPOUND_CANONICALIZED>
1

> <PUBCHEM_CACTVS_COMPLEXITY>
166

> <PUBCHEM_CACTVS_HBOND_ACCEPTOR>
0

> <PUBCHEM_CACTVS_HBOND_DONOR>
1

> <PUBCHEM_CACTVS_ROTATABLE_BOND>
3

> <PUBCHEM_CACTVS_SUBSKEYS>
AAADceByAAAEAAAAAAAAAAAAAAAAAYAAAAAwAAAAAAAAAAABAAAAHAIQAAAADCrBGCQwAILAAACAAiBCAACCAAAgBQAIiIAIBogIICKBkxGEIAhgkACIiAcQgAAOAAAAIAAAAAAAAABAAAAAAAAAAAAAAA==

> <PUBCHEM_IUPAC_OPENEYE_NAME>
(3-chlorophenyl)methyl-cyclopentyl-ammonium

> <PUBCHEM_IUPAC_CAS_NAME>
(3-chlorophenyl)methyl-cyclopentylammonium

> <PUBCHEM_IUPAC_NAME>
(3-chlorophenyl)methyl-cyclopentylazanium

> <PUBCHEM_IUPAC_SYSTEMATIC_NAME>
(3-chlorophenyl)methyl-cyclopentyl-azanium

> <PUBCHEM_IUPAC_TRADITIONAL_NAME>
(3-chlorobenzyl)-cyclopentyl-ammonium

> <PUBCHEM_IUPAC_INCHI>
InChI=1S/C12H16ClN/c13-11-5-3-4-10(8-11)9-14-12-6-1-2-7-12/h3-5,8,12,14H,1-2,6-7,9H2/p+1

> <PUBCHEM_IUPAC_INCHIKEY>
ZYNROCONMDRFNE-UHFFFAOYSA-O

> <PUBCHEM_XLOGP3>
3.5

> <PUBCHEM_EXACT_MASS>
210.104952

> <PUBCHEM_MOLECULAR_FORMULA>
C12H17ClN+

> <PUBCHEM_MOLECULAR_WEIGHT>
210.72308

> <PUBCHEM_OPENEYE_CAN_SMILES>
C1CCC(C1)[NH2+]CC2=CC(=CC=C2)Cl

> <PUBCHEM_OPENEYE_ISO_SMILES>
C1CCC(C1)[NH2+]CC2=CC(=CC=C2)Cl

> <PUBCHEM_CACTVS_TPSA>
16.6

> <PUBCHEM_MONOISOTOPIC_WEIGHT>
210.104952

> <PUBCHEM_TOTAL_CHARGE>
1

> <PUBCHEM_HEAVY_ATOM_COUNT>
14

> <PUBCHEM_ATOM_DEF_STEREO_COUNT>
0

> <PUBCHEM_ATOM_UDEF_STEREO_COUNT>
0

> <PUBCHEM_BOND_DEF_STEREO_COUNT>
0

> <PUBCHEM_BOND_UDEF_STEREO_COUNT>
0

> <PUBCHEM_ISOTOPIC_ATOM_COUNT>
0

> <PUBCHEM_COMPONENT_COUNT>
1

> <PUBCHEM_CACTVS_TAUTO_COUNT>
1

> <PUBCHEM_COORDINATE_TYPE>
1
5
255

> <PUBCHEM_BONDANNOTATIONS>
10  12  8
11  13  8
12  14  8
13  14  8
9  10  8
9  11  8

$$$$
27108667
  -OEChem-12041211312D

 34 35  0     0  0  0  0  0  0999 V2000
    2.0000   -2.7500    0.0000 Cl  0  0  0  0  0  0  0  0  0  0  0  0
    4.5981    0.7500    0.0000 N   0  3  0  0  0  0  0  0  0  0  0  0
    5.4641    1.2500    0.0000 C   0  0  0  0  0  0  0  0  0  0  0  0
    6.3301    0.7500    0.0000 C   0  0  0  0  0  0  0  0  0  0  0  0
    5.4641    2.2500    0.0000 C   0  0  0  0  0  0  0  0  0  0  0  0
    7.1962    1.2500    0.0000 C   0  0  0  0  0  0  0  0  0  0  0  0
    6.3301    2.7500    0.0000 C   0  0  0  0  0  0  0  0  0  0  0  0
    7.1962    2.2500    0.0000 C   0  0  0  0  0  0  0  0  0  0  0  0
    3.7320    0.2500    0.0000 C   0  0  0  0  0  0  0  0  0  0  0  0
    3.7320   -0.7500    0.0000 C   0  0  0  0  0  0  0  0  0  0  0  0
    2.8660   -1.2500    0.0000 C   0  0  0  0  0  0  0  0  0  0  0  0
    4.5981   -1.2500    0.0000 C   0  0  0  0  0  0  0  0  0  0  0  0
    2.8660   -2.2500    0.0000 C   0  0  0  0  0  0  0  0  0  0  0  0
    4.5981   -2.2500    0.0000 C   0  0  0  0  0  0  0  0  0  0  0  0
    3.7320   -2.7500    0.0000 C   0  0  0  0  0  0  0  0  0  0  0  0
    5.4641    0.6300    0.0000 H   0  0  0  0  0  0  0  0  0  0  0  0
    5.9316    0.2751    0.0000 H   0  0  0  0  0  0  0  0  0  0  0  0
    6.7287    0.2751    0.0000 H   0  0  0  0  0  0  0  0  0  0  0  0
    5.2520    2.8326    0.0000 H   0  0  0  0  0  0  0  0  0  0  0  0
    4.8535    2.1423    0.0000 H   0  0  0  0  0  0  0  0  0  0  0  0
    7.4082    0.6674    0.0000 H   0  0  0  0  0  0  0  0  0  0  0  0
    7.8067    1.3577    0.0000 H   0  0  0  0  0  0  0  0  0  0  0  0
    6.7287    3.2250    0.0000 H   0  0  0  0  0  0  0  0  0  0  0  0
    5.9316    3.2250    0.0000 H   0  0  0  0  0  0  0  0  0  0  0  0
    4.2881    1.2869    0.0000 H   0  0  0  0  0  0  0  0  0  0  0  0
    4.9081    0.2131    0.0000 H   0  0  0  0  0  0  0  0  0  0  0  0
    7.8067    2.1423    0.0000 H   0  0  0  0  0  0  0  0  0  0  0  0
    7.4082    2.8326    0.0000 H   0  0  0  0  0  0  0  0  0  0  0  0
    3.5200    0.8326    0.0000 H   0  0  0  0  0  0  0  0  0  0  0  0
    3.1215    0.1423    0.0000 H   0  0  0  0  0  0  0  0  0  0  0  0
    2.3291   -0.9400    0.0000 H   0  0  0  0  0  0  0  0  0  0  0  0
    5.1350   -0.9400    0.0000 H   0  0  0  0  0  0  0  0  0  0  0  0
    5.1350   -2.5600    0.0000 H   0  0  0  0  0  0  0  0  0  0  0  0
    3.7320   -3.3700    0.0000 H   0  0  0  0  0  0  0  0  0  0  0  0
  1 13  1  0  0  0  0
  2  3  1  0  0  0  0
  2  9  1  0  0  0  0
  2 25  1  0  0  0  0
  2 26  1  0  0  0  0
  3  4  1  0  0  0  0
  3  5  1  0  0  0  0
  3 16  1  0  0  0  0
  4  6  1  0  0  0  0
  4 17  1  0  0  0  0
  4 18  1  0  0  0  0
  5  7  1  0  0  0  0
  5 19  1  0  0  0  0
  5 20  1  0  0  0  0
  6  8  1  0  0  0  0
  6 21  1  0  0  0  0
  6 22  1  0  0  0  0
  7  8  1  0  0  0  0
  7 23  1  0  0  0  0
  7 24  1  0  0  0  0
  8 27  1  0  0  0  0
  8 28  1  0  0  0  0
  9 10  1  0  0  0  0
  9 29  1  0  0  0  0
  9 30  1  0  0  0  0
 10 11  2  0  0  0  0
 10 12  1  0  0  0  0
 11 13  1  0  0  0  0
 11 31  1  0  0  0  0
 12 14  2  0  0  0  0
 12 32  1  0  0  0  0
 13 15  2  0  0  0  0
 14 15  1  0  0  0  0
 14 33  1  0  0  0  0
 15 34  1  0  0  0  0
M  CHG  1   2   1
M  END
> <PUBCHEM_COMPOUND_CID>
27108667

> <PUBCHEM_COMPOUND_CANONICALIZED>
1

> <PUBCHEM_CACTVS_COMPLEXITY>
177

> <PUBCHEM_CACTVS_HBOND_ACCEPTOR>
0

> <PUBCHEM_CACTVS_HBOND_DONOR>
1

> <PUBCHEM_CACTVS_ROTATABLE_BOND>
3

> <PUBCHEM_CACTVS_SUBSKEYS>
AAADceByAAAEAAAAAAAAAAAAAAAAAAAAAAAwYAAAAAAAAAABAAAAHAIQAAAADCrBGCQwAILAAACAAiBCAACCAAAgBQAIiIAIBogIICKBkxGEIAhgkACIiAcQgAAOAAAAIAAAAAAAAABAAAAAAAAAAAAAAA==

> <PUBCHEM_IUPAC_OPENEYE_NAME>
(3-chlorophenyl)methyl-cyclohexyl-ammonium

> <PUBCHEM_IUPAC_CAS_NAME>
(3-chlorophenyl)methyl-cyclohexylammonium

> <PUBCHEM_IUPAC_NAME>
(3-chlorophenyl)methyl-cyclohexylazanium

> <PUBCHEM_IUPAC_SYSTEMATIC_NAME>
(3-chlorophenyl)methyl-cyclohexyl-azanium

> <PUBCHEM_IUPAC_TRADITIONAL_NAME>
(3-chlorobenzyl)-cyclohexyl-ammonium

> <PUBCHEM_IUPAC_INCHI>
InChI=1S/C13H18ClN/c14-12-6-4-5-11(9-12)10-15-13-7-2-1-3-8-13/h4-6,9,13,15H,1-3,7-8,10H2/p+1

> <PUBCHEM_IUPAC_INCHIKEY>
FCHZDEBMSQCADY-UHFFFAOYSA-O

> <PUBCHEM_XLOGP3>
4

> <PUBCHEM_EXACT_MASS>
224.120602

> <PUBCHEM_MOLECULAR_FORMULA>
C13H19ClN+

> <PUBCHEM_MOLECULAR_WEIGHT>
224.74966

> <PUBCHEM_OPENEYE_CAN_SMILES>
C1CCC(CC1)[NH2+]CC2=CC(=CC=C2)Cl

> <PUBCHEM_OPENEYE_ISO_SMILES>
C1CCC(CC1)[NH2+]CC2=CC(=CC=C2)Cl

> <PUBCHEM_CACTVS_TPSA>
16.6

> <PUBCHEM_MONOISOTOPIC_WEIGHT>
224.120602

> <PUBCHEM_TOTAL_CHARGE>
1

> <PUBCHEM_HEAVY_ATOM_COUNT>
15

> <PUBCHEM_ATOM_DEF_STEREO_COUNT>
0

> <PUBCHEM_ATOM_UDEF_STEREO_COUNT>
0

> <PUBCHEM_BOND_DEF_STEREO_COUNT>
0

> <PUBCHEM_BOND_UDEF_STEREO_COUNT>
0

> <PUBCHEM_ISOTOPIC_ATOM_COUNT>
0

> <PUBCHEM_COMPONENT_COUNT>
1

> <PUBCHEM_CACTVS_TAUTO_COUNT>
1

> <PUBCHEM_COORDINATE_TYPE>
1
5
255

> <PUBCHEM_BONDANNOTATIONS>
10  11  8
10  12  8
11  13  8
12  14  8
13  15  8
14  15  8

$$$$
27108668
  -OEChem-12041211312D

 37 38  0     0  0  0  0  0  0999 V2000
    9.1906   -0.9948    0.0000 Cl  0  0  0  0  0  0  0  0  0  0  0  0
    5.1906    0.7373    0.0000 N   0  3  0  0  0  0  0  0  0  0  0  0
    4.1906    0.7373    0.0000 C   0  0  0  0  0  0  0  0  0  0  0  0
    3.7568   -0.1637    0.0000 C   0  0  0  0  0  0  0  0  0  0  0  0
    3.7568    1.6383    0.0000 C   0  0  0  0  0  0  0  0  0  0  0  0
    2.7818   -0.3862    0.0000 C   0  0  0  0  0  0  0  0  0  0  0  0
    2.7818    1.8608    0.0000 C   0  0  0  0  0  0  0  0  0  0  0  0
    2.0000    0.2373    0.0000 C   0  0  0  0  0  0  0  0  0  0  0  0
    2.0000    1.2373    0.0000 C   0  0  0  0  0  0  0  0  0  0  0  0
    6.1906    0.7373    0.0000 C   0  0  0  0  0  0  0  0  0  0  0  0
    6.6906   -0.1287    0.0000 C   0  0  0  0  0  0  0  0  0  0  0  0
    7.6906   -0.1287    0.0000 C   0  0  0  0  0  0  0  0  0  0  0  0
    6.1906   -0.9948    0.0000 C   0  0  0  0  0  0  0  0  0  0  0  0
    8.1906   -0.9948    0.0000 C   0  0  0  0  0  0  0  0  0  0  0  0
    6.6906   -1.8608    0.0000 C   0  0  0  0  0  0  0  0  0  0  0  0
    7.6906   -1.8608    0.0000 C   0  0  0  0  0  0  0  0  0  0  0  0
    4.5205    0.2123    0.0000 H   0  0  0  0  0  0  0  0  0  0  0  0
    3.7568   -0.7837    0.0000 H   0  0  0  0  0  0  0  0  0  0  0  0
    4.3612   -0.3016    0.0000 H   0  0  0  0  0  0  0  0  0  0  0  0
    4.3612    1.7762    0.0000 H   0  0  0  0  0  0  0  0  0  0  0  0
    3.7568    2.2583    0.0000 H   0  0  0  0  0  0  0  0  0  0  0  0
    2.2971   -0.7728    0.0000 H   0  0  0  0  0  0  0  0  0  0  0  0
    3.0508   -0.9448    0.0000 H   0  0  0  0  0  0  0  0  0  0  0  0
    3.0508    2.4194    0.0000 H   0  0  0  0  0  0  0  0  0  0  0  0
    2.2971    2.2474    0.0000 H   0  0  0  0  0  0  0  0  0  0  0  0
    5.1906    0.1173    0.0000 H   0  0  0  0  0  0  0  0  0  0  0  0
    5.1906    1.3573    0.0000 H   0  0  0  0  0  0  0  0  0  0  0  0
    1.3955    0.3753    0.0000 H   0  0  0  0  0  0  0  0  0  0  0  0
    1.7310   -0.3213    0.0000 H   0  0  0  0  0  0  0  0  0  0  0  0
    1.7310    1.7959    0.0000 H   0  0  0  0  0  0  0  0  0  0  0  0
    1.3955    1.0993    0.0000 H   0  0  0  0  0  0  0  0  0  0  0  0
    6.7732    0.9493    0.0000 H   0  0  0  0  0  0  0  0  0  0  0  0
    6.0830    1.3479    0.0000 H   0  0  0  0  0  0  0  0  0  0  0  0
    8.0006    0.4082    0.0000 H   0  0  0  0  0  0  0  0  0  0  0  0
    5.5706   -0.9948    0.0000 H   0  0  0  0  0  0  0  0  0  0  0  0
    6.3806   -2.3977    0.0000 H   0  0  0  0  0  0  0  0  0  0  0  0
    8.0006   -2.3977    0.0000 H   0  0  0  0  0  0  0  0  0  0  0  0
  1 14  1  0  0  0  0
  2  3  1  0  0  0  0
  2 10  1  0  0  0  0
  2 26  1  0  0  0  0
  2 27  1  0  0  0  0
  3  4  1  0  0  0  0
  3  5  1  0  0  0  0
  3 17  1  0  0  0  0
  4  6  1  0  0  0  0
  4 18  1  0  0  0  0
  4 19  1  0  0  0  0
  5  7  1  0  0  0  0
  5 20  1  0  0  0  0
  5 21  1  0  0  0  0
  6  8  1  0  0  0  0
  6 22  1  0  0  0  0
  6 23  1  0  0  0  0
  7  9  1  0  0  0  0
  7 24  1  0  0  0  0
  7 25  1  0  0  0  0
  8  9  1  0  0  0  0
  8 28  1  0  0  0  0
  8 29  1  0  0  0  0
  9 30  1  0  0  0  0
  9 31  1  0  0  0  0
 10 11  1  0  0  0  0
 10 32  1  0  0  0  0
 10 33  1  0  0  0  0
 11 12  2  0  0  0  0
 11 13  1  0  0  0  0
 12 14  1  0  0  0  0
 12 34  1  0  0  0  0
 13 15  2  0  0  0  0
 13 35  1  0  0  0  0
 14 16  2  0  0  0  0
 15 16  1  0  0  0  0
 15 36  1  0  0  0  0
 16 37  1  0  0  0  0
M  CHG  1   2   1
M  END
> <PUBCHEM_COMPOUND_CID>
27108668

> <PUBCHEM_COMPOUND_CANONICALIZED>
1

> <PUBCHEM_CACTVS_COMPLEXITY>
187

> <PUBCHEM_CACTVS_HBOND_ACCEPTOR>
0

> <PUBCHEM_CACTVS_HBOND_DONOR>
1

> <PUBCHEM_CACTVS_ROTATABLE_BOND>
3

> <PUBCHEM_CACTVS_SUBSKEYS>
AAADceByAAAEAAAAAAAAAAAAAAAAAAAAAAAwAAAABgAAAAABAAAAHAIQAAAADCrBGCQwAILAAACAAiBCAACCAAAgBQAIiIAIBogIICKBkxGEIAhgkACIiAcQgAAOAAAAIAAAAAAAAABAAAAAAAAAAAAAAA==

> <PUBCHEM_IUPAC_OPENEYE_NAME>
(3-chlorophenyl)methyl-cycloheptyl-ammonium

> <PUBCHEM_IUPAC_CAS_NAME>
(3-chlorophenyl)methyl-cycloheptylammonium

> <PUBCHEM_IUPAC_NAME>
(3-chlorophenyl)methyl-cycloheptylazanium

> <PUBCHEM_IUPAC_SYSTEMATIC_NAME>
(3-chlorophenyl)methyl-cycloheptyl-azanium

> <PUBCHEM_IUPAC_TRADITIONAL_NAME>
(3-chlorobenzyl)-cycloheptyl-ammonium

> <PUBCHEM_IUPAC_INCHI>
InChI=1S/C14H20ClN/c15-13-7-5-6-12(10-13)11-16-14-8-3-1-2-4-9-14/h5-7,10,14,16H,1-4,8-9,11H2/p+1

> <PUBCHEM_IUPAC_INCHIKEY>
IHCGZVKDZYYTOC-UHFFFAOYSA-O

> <PUBCHEM_XLOGP3>
4.5

> <PUBCHEM_EXACT_MASS>
238.136252

> <PUBCHEM_MOLECULAR_FORMULA>
C14H21ClN+

> <PUBCHEM_MOLECULAR_WEIGHT>
238.77624

> <PUBCHEM_OPENEYE_CAN_SMILES>
C1CCCC(CC1)[NH2+]CC2=CC(=CC=C2)Cl

> <PUBCHEM_OPENEYE_ISO_SMILES>
C1CCCC(CC1)[NH2+]CC2=CC(=CC=C2)Cl

> <PUBCHEM_CACTVS_TPSA>
16.6

> <PUBCHEM_MONOISOTOPIC_WEIGHT>
238.136252

> <PUBCHEM_TOTAL_CHARGE>
1

> <PUBCHEM_HEAVY_ATOM_COUNT>
16

> <PUBCHEM_ATOM_DEF_STEREO_COUNT>
0

> <PUBCHEM_ATOM_UDEF_STEREO_COUNT>
0

> <PUBCHEM_BOND_DEF_STEREO_COUNT>
0

> <PUBCHEM_BOND_UDEF_STEREO_COUNT>
0

> <PUBCHEM_ISOTOPIC_ATOM_COUNT>
0

> <PUBCHEM_COMPONENT_COUNT>
1

> <PUBCHEM_CACTVS_TAUTO_COUNT>
1

> <PUBCHEM_COORDINATE_TYPE>
1
5
255

> <PUBCHEM_BONDANNOTATIONS>
11  12  8
11  13  8
12  14  8
13  15  8
14  16  8
15  16  8

$$$$
27108669
  -OEChem-12041211312D

 25 25  0     0  0  0  0  0  0999 V2000
    2.0000   -3.0600    0.0000 Cl  0  0  0  0  0  0  0  0  0  0  0  0
    6.3301    2.4400    0.0000 O   0  0  0  0  0  0  0  0  0  0  0  0
    4.5981    0.4400    0.0000 N   0  3  0  0  0  0  0  0  0  0  0  0
    3.7320   -0.0600    0.0000 C   0  0  0  0  0  0  0  0  0  0  0  0
    5.4641    0.9400    0.0000 C   0  0  0  0  0  0  0  0  0  0  0  0
    3.7320   -1.0600    0.0000 C   0  0  0  0  0  0  0  0  0  0  0  0
    5.4641    1.9400    0.0000 C   0  0  0  0  0  0  0  0  0  0  0  0
    2.8660   -1.5600    0.0000 C   0  0  0  0  0  0  0  0  0  0  0  0
    4.5981   -1.5600    0.0000 C   0  0  0  0  0  0  0  0  0  0  0  0
    2.8660   -2.5600    0.0000 C   0  0  0  0  0  0  0  0  0  0  0  0
    4.5981   -2.5600    0.0000 C   0  0  0  0  0  0  0  0  0  0  0  0
    3.7320   -3.0600    0.0000 C   0  0  0  0  0  0  0  0  0  0  0  0
    4.2881    0.9769    0.0000 H   0  0  0  0  0  0  0  0  0  0  0  0
    4.9081   -0.0969    0.0000 H   0  0  0  0  0  0  0  0  0  0  0  0
    3.5200    0.5226    0.0000 H   0  0  0  0  0  0  0  0  0  0  0  0
    3.1215   -0.1677    0.0000 H   0  0  0  0  0  0  0  0  0  0  0  0
    5.6762    0.3574    0.0000 H   0  0  0  0  0  0  0  0  0  0  0  0
    6.0747    1.0477    0.0000 H   0  0  0  0  0  0  0  0  0  0  0  0
    5.2520    2.5226    0.0000 H   0  0  0  0  0  0  0  0  0  0  0  0
    4.8535    1.8323    0.0000 H   0  0  0  0  0  0  0  0  0  0  0  0
    2.3291   -1.2500    0.0000 H   0  0  0  0  0  0  0  0  0  0  0  0
    5.1350   -1.2500    0.0000 H   0  0  0  0  0  0  0  0  0  0  0  0
    5.1350   -2.8700    0.0000 H   0  0  0  0  0  0  0  0  0  0  0  0
    3.7320   -3.6800    0.0000 H   0  0  0  0  0  0  0  0  0  0  0  0
    6.3301    3.0600    0.0000 H   0  0  0  0  0  0  0  0  0  0  0  0
  1 10  1  0  0  0  0
  2  7  1  0  0  0  0
  2 25  1  0  0  0  0
  3  4  1  0  0  0  0
  3  5  1  0  0  0  0
  3 13  1  0  0  0  0
  3 14  1  0  0  0  0
  4  6  1  0  0  0  0
  4 15  1  0  0  0  0
  4 16  1  0  0  0  0
  5  7  1  0  0  0  0
  5 17  1  0  0  0  0
  5 18  1  0  0  0  0
  6  8  2  0  0  0  0
  6  9  1  0  0  0  0
  7 19  1  0  0  0  0
  7 20  1  0  0  0  0
  8 10  1  0  0  0  0
  8 21  1  0  0  0  0
  9 11  2  0  0  0  0
  9 22  1  0  0  0  0
 10 12  2  0  0  0  0
 11 12  1  0  0  0  0
 11 23  1  0  0  0  0
 12 24  1  0  0  0  0
M  CHG  1   3   1
M  END
> <PUBCHEM_COMPOUND_CID>
27108669

> <PUBCHEM_COMPOUND_CANONICALIZED>
1

> <PUBCHEM_CACTVS_COMPLEXITY>
121

> <PUBCHEM_CACTVS_HBOND_ACCEPTOR>
1

> <PUBCHEM_CACTVS_HBOND_DONOR>
2

> <PUBCHEM_CACTVS_ROTATABLE_BOND>
4

> <PUBCHEM_CACTVS_SUBSKEYS>
AAADccByIAAEAAAAAAAAAAAAAAAAAAAAAAAwAAAAAAAAAAABAAAAHgIQCAAADALhmCYwAILAAgCAAiBCAACCAAAgBQAIiIAIBogKMCKBkxGEIAhgkACYiAcQgAAOAAAAIAAAAAAAAABAAAAAAAAAAAAAAA==

> <PUBCHEM_IUPAC_OPENEYE_NAME>
(3-chlorophenyl)methyl-(2-hydroxyethyl)ammonium

> <PUBCHEM_IUPAC_CAS_NAME>
(3-chlorophenyl)methyl-(2-hydroxyethyl)ammonium

> <PUBCHEM_IUPAC_NAME>
(3-chlorophenyl)methyl-(2-hydroxyethyl)azanium

> <PUBCHEM_IUPAC_SYSTEMATIC_NAME>
(3-chlorophenyl)methyl-(2-hydroxyethyl)azanium

> <PUBCHEM_IUPAC_TRADITIONAL_NAME>
(3-chlorobenzyl)-(2-hydroxyethyl)ammonium

> <PUBCHEM_IUPAC_INCHI>
InChI=1S/C9H12ClNO/c10-9-3-1-2-8(6-9)7-11-4-5-12/h1-3,6,11-12H,4-5,7H2/p+1

> <PUBCHEM_IUPAC_INCHIKEY>
IFPPTFSQAJZOCG-UHFFFAOYSA-O

> <PUBCHEM_XLOGP3>
1.5

> <PUBCHEM_EXACT_MASS>
186.068567

> <PUBCHEM_MOLECULAR_FORMULA>
C9H13ClNO+

> <PUBCHEM_MOLECULAR_WEIGHT>
186.65862

> <PUBCHEM_OPENEYE_CAN_SMILES>
C1=CC(=CC(=C1)Cl)C[NH2+]CCO

> <PUBCHEM_OPENEYE_ISO_SMILES>
C1=CC(=CC(=C1)Cl)C[NH2+]CCO

> <PUBCHEM_CACTVS_TPSA>
36.8

> <PUBCHEM_MONOISOTOPIC_WEIGHT>
186.068567

> <PUBCHEM_TOTAL_CHARGE>
1

> <PUBCHEM_HEAVY_ATOM_COUNT>
12

> <PUBCHEM_ATOM_DEF_STEREO_COUNT>
0

> <PUBCHEM_ATOM_UDEF_STEREO_COUNT>
0

> <PUBCHEM_BOND_DEF_STEREO_COUNT>
0

> <PUBCHEM_BOND_UDEF_STEREO_COUNT>
0

> <PUBCHEM_ISOTOPIC_ATOM_COUNT>
0

> <PUBCHEM_COMPONENT_COUNT>
1

> <PUBCHEM_CACTVS_TAUTO_COUNT>
1

> <PUBCHEM_COORDINATE_TYPE>
1
5
255

> <PUBCHEM_BONDANNOTATIONS>
10  12  8
11  12  8
6  8  8
6  9  8
8  10  8
9  11  8

$$$$
