71449662
  -OEChem-06181312542D

 55 57  0     1  0  0  0  0  0999 V2000
    5.1350   -0.3450    0.0000 O   0  0  0  0  0  0  0  0  0  0  0  0
    6.8671   -0.3450    0.0000 O   0  0  0  0  0  0  0  0  0  0  0  0
    5.1350   -3.3450    0.0000 O   0  0  0  0  0  0  0  0  0  0  0  0
    3.4030   -2.3450    0.0000 O   0  0  0  0  0  0  0  0  0  0  0  0
    6.8671   -2.3450    0.0000 O   0  0  0  0  0  0  0  0  0  0  0  0
    2.5369   -0.8450    0.0000 O   0  0  0  0  0  0  0  0  0  0  0  0
    8.5991    2.6550    0.0000 O   0  0  0  0  0  0  0  0  0  0  0  0
    5.1350    2.6550    0.0000 O   0  0  0  0  0  0  0  0  0  0  0  0
    8.5991   -0.3450    0.0000 O   0  0  0  0  0  0  0  0  0  0  0  0
   12.0632    2.6550    0.0000 O   0  0  0  0  0  0  0  0  0  0  0  0
    5.1350   -2.3450    0.0000 C   0  0  1  0  0  0  0  0  0  0  0  0
    4.2690   -1.8450    0.0000 C   0  0  1  0  0  0  0  0  0  0  0  0
    6.0010   -1.8450    0.0000 C   0  0  2  0  0  0  0  0  0  0  0  0
    4.2690   -0.8450    0.0000 C   0  0  1  0  0  0  0  0  0  0  0  0
    6.0010   -0.8450    0.0000 C   0  0  1  0  0  0  0  0  0  0  0  0
    3.4030   -0.3450    0.0000 C   0  0  0  0  0  0  0  0  0  0  0  0
    6.8671    0.6550    0.0000 C   0  0  0  0  0  0  0  0  0  0  0  0
    7.7331    1.1550    0.0000 C   0  0  0  0  0  0  0  0  0  0  0  0
    6.0010    1.1550    0.0000 C   0  0  0  0  0  0  0  0  0  0  0  0
    7.7331    2.1550    0.0000 C   0  0  0  0  0  0  0  0  0  0  0  0
    6.0010    2.1550    0.0000 C   0  0  0  0  0  0  0  0  0  0  0  0
    8.5991    0.6550    0.0000 C   0  0  0  0  0  0  0  0  0  0  0  0
    6.8671    2.6550    0.0000 C   0  0  0  0  0  0  0  0  0  0  0  0
    9.4651    1.1550    0.0000 C   0  0  0  0  0  0  0  0  0  0  0  0
    9.4651    2.1550    0.0000 C   0  0  0  0  0  0  0  0  0  0  0  0
   10.3312    0.6550    0.0000 C   0  0  0  0  0  0  0  0  0  0  0  0
    8.5991    3.6550    0.0000 C   0  0  0  0  0  0  0  0  0  0  0  0
   10.3312    2.6550    0.0000 C   0  0  0  0  0  0  0  0  0  0  0  0
   11.1972    1.1550    0.0000 C   0  0  0  0  0  0  0  0  0  0  0  0
    5.1350    3.6550    0.0000 C   0  0  0  0  0  0  0  0  0  0  0  0
   11.1972    2.1550    0.0000 C   0  0  0  0  0  0  0  0  0  0  0  0
    4.5981   -2.6550    0.0000 H   0  0  0  0  0  0  0  0  0  0  0  0
    4.2690   -2.4650    0.0000 H   0  0  0  0  0  0  0  0  0  0  0  0
    6.0010   -2.4650    0.0000 H   0  0  0  0  0  0  0  0  0  0  0  0
    4.2690   -0.2250    0.0000 H   0  0  0  0  0  0  0  0  0  0  0  0
    6.5380   -1.1550    0.0000 H   0  0  0  0  0  0  0  0  0  0  0  0
    3.8015    0.1299    0.0000 H   0  0  0  0  0  0  0  0  0  0  0  0
    3.0044    0.1299    0.0000 H   0  0  0  0  0  0  0  0  0  0  0  0
    4.5981   -3.6550    0.0000 H   0  0  0  0  0  0  0  0  0  0  0  0
    3.4030   -2.9650    0.0000 H   0  0  0  0  0  0  0  0  0  0  0  0
    6.8671   -2.9650    0.0000 H   0  0  0  0  0  0  0  0  0  0  0  0
    2.0000   -0.5350    0.0000 H   0  0  0  0  0  0  0  0  0  0  0  0
    5.4641    0.8450    0.0000 H   0  0  0  0  0  0  0  0  0  0  0  0
    6.8671    3.2750    0.0000 H   0  0  0  0  0  0  0  0  0  0  0  0
    8.9282    2.4650    0.0000 H   0  0  0  0  0  0  0  0  0  0  0  0
   10.3312    0.0350    0.0000 H   0  0  0  0  0  0  0  0  0  0  0  0
    9.2191    3.6550    0.0000 H   0  0  0  0  0  0  0  0  0  0  0  0
    8.5991    4.2750    0.0000 H   0  0  0  0  0  0  0  0  0  0  0  0
    7.9791    3.6550    0.0000 H   0  0  0  0  0  0  0  0  0  0  0  0
   10.3312    3.2750    0.0000 H   0  0  0  0  0  0  0  0  0  0  0  0
   11.7341    0.8450    0.0000 H   0  0  0  0  0  0  0  0  0  0  0  0
    5.7550    3.6550    0.0000 H   0  0  0  0  0  0  0  0  0  0  0  0
    5.1350    4.2750    0.0000 H   0  0  0  0  0  0  0  0  0  0  0  0
    4.5150    3.6550    0.0000 H   0  0  0  0  0  0  0  0  0  0  0  0
   12.6002    2.3450    0.0000 H   0  0  0  0  0  0  0  0  0  0  0  0
  1 14  1  0  0  0  0
  1 15  1  0  0  0  0
 15  2  1  1  0  0  0
  2 17  1  0  0  0  0
 11  3  1  1  0  0  0
  3 39  1  0  0  0  0
 12  4  1  6  0  0  0
  4 40  1  0  0  0  0
 13  5  1  6  0  0  0
  5 41  1  0  0  0  0
  6 16  1  0  0  0  0
  6 42  1  0  0  0  0
  7 20  1  0  0  0  0
  7 27  1  0  0  0  0
  8 21  1  0  0  0  0
  8 30  1  0  0  0  0
  9 22  2  0  0  0  0
 10 31  1  0  0  0  0
 10 55  1  0  0  0  0
 11 12  1  0  0  0  0
 11 13  1  0  0  0  0
 11 32  1  0  0  0  0
 12 14  1  0  0  0  0
 12 33  1  0  0  0  0
 13 15  1  0  0  0  0
 13 34  1  0  0  0  0
 14 16  1  1  0  0  0
 14 35  1  0  0  0  0
 15 36  1  0  0  0  0
 16 37  1  0  0  0  0
 16 38  1  0  0  0  0
 17 18  1  0  0  0  0
 17 19  2  0  0  0  0
 18 20  2  0  0  0  0
 18 22  1  0  0  0  0
 19 21  1  0  0  0  0
 19 43  1  0  0  0  0
 20 23  1  0  0  0  0
 21 23  2  0  0  0  0
 22 24  1  0  0  0  0
 23 44  1  0  0  0  0
 24 25  2  0  0  0  0
 24 26  1  0  0  0  0
 25 28  1  0  0  0  0
 25 45  1  0  0  0  0
 26 29  2  0  0  0  0
 26 46  1  0  0  0  0
 27 47  1  0  0  0  0
 27 48  1  0  0  0  0
 27 49  1  0  0  0  0
 28 31  2  0  0  0  0
 28 50  1  0  0  0  0
 29 31  1  0  0  0  0
 29 51  1  0  0  0  0
 30 52  1  0  0  0  0
 30 53  1  0  0  0  0
 30 54  1  0  0  0  0
M  END
> <PUBCHEM_COMPOUND_CID>
71449662

> <PUBCHEM_COMPOUND_CANONICALIZED>
1

> <PUBCHEM_CACTVS_COMPLEXITY>
581

> <PUBCHEM_CACTVS_HBOND_ACCEPTOR>
10

> <PUBCHEM_CACTVS_HBOND_DONOR>
5

> <PUBCHEM_CACTVS_ROTATABLE_BOND>
7

> <PUBCHEM_CACTVS_SUBSKEYS>
AAADceB4PAAAAAAAAAAAAAAAAAAAAAAAAAA0YIAAAAAAAAABQAAAGgAACAAADBSwmAMyDoAABgCIAqBSAAACCAAkIAAIiAEGCMgdNzaGNRqieWCl4BUPuYfI7OzOIAAACAAIAABAAAAQABAAAAAAAAAAAA==

> <PUBCHEM_IUPAC_OPENEYE_NAME>
[2,4-dimethoxy-6-[(2S,3R,4S,5S,6R)-3,4,5-trihydroxy-6-(hydroxymethyl)tetrahydropyran-2-yl]oxy-phenyl]-(4-hydroxyphenyl)methanone

> <PUBCHEM_IUPAC_CAS_NAME>
[2,4-dimethoxy-6-[[(2S,3R,4S,5S,6R)-3,4,5-trihydroxy-6-(hydroxymethyl)-2-oxanyl]oxy]phenyl]-(4-hydroxyphenyl)methanone

> <PUBCHEM_IUPAC_NAME>
[2,4-dimethoxy-6-[(2S,3R,4S,5S,6R)-3,4,5-trihydroxy-6-(hydroxymethyl)oxan-2-yl]oxyphenyl]-(4-hydroxyphenyl)methanone

> <PUBCHEM_IUPAC_SYSTEMATIC_NAME>
[2-[(2S,3R,4S,5S,6R)-6-(hydroxymethyl)-3,4,5-tris(oxidanyl)oxan-2-yl]oxy-4,6-dimethoxy-phenyl]-(4-hydroxyphenyl)methanone

> <PUBCHEM_IUPAC_TRADITIONAL_NAME>
[2,4-dimethoxy-6-[(2S,3R,4S,5S,6R)-3,4,5-trihydroxy-6-methylol-tetrahydropyran-2-yl]oxy-phenyl]-(4-hydroxyphenyl)methanone

> <PUBCHEM_IUPAC_INCHI>
InChI=1S/C21H24O10/c1-28-12-7-13(29-2)16(17(24)10-3-5-11(23)6-4-10)14(8-12)30-21-20(27)19(26)18(25)15(9-22)31-21/h3-8,15,18-23,25-27H,9H2,1-2H3/t15-,18-,19+,20-,21-/m1/s1

> <PUBCHEM_IUPAC_INCHIKEY>
FRRSUSRGXMCMFL-CMWLGVBASA-N

> <PUBCHEM_XLOGP3>
0.2

> <PUBCHEM_EXACT_MASS>
436.136947

> <PUBCHEM_MOLECULAR_FORMULA>
C21H24O10

> <PUBCHEM_MOLECULAR_WEIGHT>
436.40926

> <PUBCHEM_OPENEYE_CAN_SMILES>
COC1=CC(=C(C(=C1)OC)C(=O)C2=CC=C(C=C2)O)OC3C(C(C(C(O3)CO)O)O)O

> <PUBCHEM_OPENEYE_ISO_SMILES>
COC1=CC(=C(C(=C1)OC)C(=O)C2=CC=C(C=C2)O)O[C@H]3[C@@H]([C@H]([C@@H]([C@H](O3)CO)O)O)O

> <PUBCHEM_CACTVS_TPSA>
155

> <PUBCHEM_MONOISOTOPIC_WEIGHT>
436.136947

> <PUBCHEM_TOTAL_CHARGE>
0

> <PUBCHEM_HEAVY_ATOM_COUNT>
31

> <PUBCHEM_ATOM_DEF_STEREO_COUNT>
5

> <PUBCHEM_ATOM_UDEF_STEREO_COUNT>
0

> <PUBCHEM_BOND_DEF_STEREO_COUNT>
0

> <PUBCHEM_BOND_UDEF_STEREO_COUNT>
0

> <PUBCHEM_ISOTOPIC_ATOM_COUNT>
0

> <PUBCHEM_COMPONENT_COUNT>
1

> <PUBCHEM_CACTVS_TAUTO_COUNT>
4

> <PUBCHEM_COORDINATE_TYPE>
1
5
255

> <PUBCHEM_BONDANNOTATIONS>
14  16  5
17  18  8
17  19  8
18  20  8
19  21  8
15  2  5
20  23  8
21  23  8
24  25  8
24  26  8
25  28  8
26  29  8
28  31  8
29  31  8
11  3  5
12  4  6
13  5  6

$$$$
71449990
  -OEChem-06181312542D

 30 32  0     0  0  0  0  0  0999 V2000
    2.0000    1.2917    0.0000 Br  0  0  0  0  0  0  0  0  0  0  0  0
    4.9714   -1.5353    0.0000 O   0  0  0  0  0  0  0  0  0  0  0  0
    5.8374   -0.0353    0.0000 N   0  0  0  0  0  0  0  0  0  0  0  0
    6.7034   -1.5353    0.0000 N   0  0  0  0  0  0  0  0  0  0  0  0
    4.9364    0.3986    0.0000 C   0  0  0  0  0  0  0  0  0  0  0  0
    6.7384    0.3986    0.0000 C   0  0  0  0  0  0  0  0  0  0  0  0
    4.7139    1.3735    0.0000 C   0  0  0  0  0  0  0  0  0  0  0  0
    6.9609    1.3735    0.0000 C   0  0  0  0  0  0  0  0  0  0  0  0
    5.3374    2.1553    0.0000 C   0  0  0  0  0  0  0  0  0  0  0  0
    6.3374    2.1553    0.0000 C   0  0  0  0  0  0  0  0  0  0  0  0
    4.1839   -0.3216    0.0000 C   0  0  0  0  0  0  0  0  0  0  0  0
    7.4909   -0.3216    0.0000 C   0  0  0  0  0  0  0  0  0  0  0  0
    3.7234    1.6958    0.0000 C   0  0  0  0  0  0  0  0  0  0  0  0
    7.9514    1.6958    0.0000 C   0  0  0  0  0  0  0  0  0  0  0  0
    5.8374   -1.0353    0.0000 C   0  0  0  0  0  0  0  0  0  0  0  0
    3.1862   -0.0222    0.0000 C   0  0  0  0  0  0  0  0  0  0  0  0
    8.4886   -0.0223    0.0000 C   0  0  0  0  0  0  0  0  0  0  0  0
    2.9544    0.9933    0.0000 C   0  0  0  0  0  0  0  0  0  0  0  0
    8.7204    0.9932    0.0000 C   0  0  0  0  0  0  0  0  0  0  0  0
    5.0684    2.7139    0.0000 H   0  0  0  0  0  0  0  0  0  0  0  0
    6.6064    2.7139    0.0000 H   0  0  0  0  0  0  0  0  0  0  0  0
    4.3288   -0.9244    0.0000 H   0  0  0  0  0  0  0  0  0  0  0  0
    7.3460   -0.9244    0.0000 H   0  0  0  0  0  0  0  0  0  0  0  0
    3.5925    2.3018    0.0000 H   0  0  0  0  0  0  0  0  0  0  0  0
    8.0824    2.3018    0.0000 H   0  0  0  0  0  0  0  0  0  0  0  0
    2.7333   -0.4457    0.0000 H   0  0  0  0  0  0  0  0  0  0  0  0
    8.9415   -0.4457    0.0000 H   0  0  0  0  0  0  0  0  0  0  0  0
    9.3122    1.1782    0.0000 H   0  0  0  0  0  0  0  0  0  0  0  0
    6.7034   -2.1553    0.0000 H   0  0  0  0  0  0  0  0  0  0  0  0
    7.2404   -1.2253    0.0000 H   0  0  0  0  0  0  0  0  0  0  0  0
  1 18  1  0  0  0  0
  2 15  2  0  0  0  0
  3  5  1  0  0  0  0
  3  6  1  0  0  0  0
  3 15  1  0  0  0  0
  4 15  1  0  0  0  0
  4 29  1  0  0  0  0
  4 30  1  0  0  0  0
  5  7  2  0  0  0  0
  5 11  1  0  0  0  0
  6  8  1  0  0  0  0
  6 12  2  0  0  0  0
  7  9  1  0  0  0  0
  7 13  1  0  0  0  0
  8 10  1  0  0  0  0
  8 14  2  0  0  0  0
  9 10  2  0  0  0  0
  9 20  1  0  0  0  0
 10 21  1  0  0  0  0
 11 16  2  0  0  0  0
 11 22  1  0  0  0  0
 12 17  1  0  0  0  0
 12 23  1  0  0  0  0
 13 18  2  0  0  0  0
 13 24  1  0  0  0  0
 14 19  1  0  0  0  0
 14 25  1  0  0  0  0
 16 18  1  0  0  0  0
 16 26  1  0  0  0  0
 17 19  2  0  0  0  0
 17 27  1  0  0  0  0
 19 28  1  0  0  0  0
M  END
> <PUBCHEM_COMPOUND_CID>
71449990

> <PUBCHEM_COMPOUND_CANONICALIZED>
1

> <PUBCHEM_CACTVS_COMPLEXITY>
384

> <PUBCHEM_CACTVS_HBOND_ACCEPTOR>
1

> <PUBCHEM_CACTVS_HBOND_DONOR>
1

> <PUBCHEM_CACTVS_ROTATABLE_BOND>
0

> <PUBCHEM_CACTVS_SUBSKEYS>
AAADccBzIAAAEAAAAAAAAAAAAAAAAAAAAAAwYAAABAAAAAABQAAAHgBQAAABrAiBGAAxwINAAACIAiRCUACCAAAhAgQIiAAAZKiIIGLAkZGEIAhghALIyjcQgAAOAAAgEAACAAAAAEAgAAQAAAAAAAAAAA==

> <PUBCHEM_IUPAC_OPENEYE_NAME>
3-bromobenzo[b][1]benzazepine-11-carboxamide

> <PUBCHEM_IUPAC_CAS_NAME>
3-bromo-11-benzo[b][1]benzazepinecarboxamide

> <PUBCHEM_IUPAC_NAME>
3-bromobenzo[b][1]benzazepine-11-carboxamide

> <PUBCHEM_IUPAC_SYSTEMATIC_NAME>
3-bromanylbenzo[b][1]benzazepine-11-carboxamide

> <PUBCHEM_IUPAC_TRADITIONAL_NAME>
3-bromobenzo[b][1]benzazepine-11-carboxamide

> <PUBCHEM_IUPAC_INCHI>
InChI=1S/C15H11BrN2O/c16-12-7-8-14-11(9-12)6-5-10-3-1-2-4-13(10)18(14)15(17)19/h1-9H,(H2,17,19)

> <PUBCHEM_IUPAC_INCHIKEY>
FBJBWHPVKPHRLX-UHFFFAOYSA-N

> <PUBCHEM_XLOGP3>
3.1

> <PUBCHEM_EXACT_MASS>
314.005475

> <PUBCHEM_MOLECULAR_FORMULA>
C15H11BrN2O

> <PUBCHEM_MOLECULAR_WEIGHT>
315.16464

> <PUBCHEM_OPENEYE_CAN_SMILES>
C1=CC=C2C(=C1)C=CC3=C(N2C(=O)N)C=CC(=C3)Br

> <PUBCHEM_OPENEYE_ISO_SMILES>
C1=CC=C2C(=C1)C=CC3=C(N2C(=O)N)C=CC(=C3)Br

> <PUBCHEM_CACTVS_TPSA>
46.3

> <PUBCHEM_MONOISOTOPIC_WEIGHT>
314.005475

> <PUBCHEM_TOTAL_CHARGE>
0

> <PUBCHEM_HEAVY_ATOM_COUNT>
19

> <PUBCHEM_ATOM_DEF_STEREO_COUNT>
0

> <PUBCHEM_ATOM_UDEF_STEREO_COUNT>
0

> <PUBCHEM_BOND_DEF_STEREO_COUNT>
0

> <PUBCHEM_BOND_UDEF_STEREO_COUNT>
0

> <PUBCHEM_ISOTOPIC_ATOM_COUNT>
0

> <PUBCHEM_COMPONENT_COUNT>
1

> <PUBCHEM_CACTVS_TAUTO_COUNT>
2

> <PUBCHEM_COORDINATE_TYPE>
1
5
255

> <PUBCHEM_BONDANNOTATIONS>
11  16  8
12  17  8
13  18  8
14  19  8
16  18  8
17  19  8
5  11  8
5  7  8
6  12  8
6  8  8
7  13  8
8  14  8

$$$$
