49875583
  -OEChem-11301217592D

 23 23  0     0  0  0  0  0  0999 V2000
    4.2690   -2.0600    0.0000 O   0  0  0  0  0  0  0  0  0  0  0  0
    3.4030   -0.5600    0.0000 C   0  0  0  0  0  0  0  0  0  0  0  0
    3.4030    1.4400    0.0000 C   0  0  0  0  0  0  0  0  0  0  0  0
    3.4030   -1.5600    0.0000 C   0  0  0  0  0  0  0  0  0  0  0  0
    2.5369   -2.0600    0.0000 C   0  0  0  0  0  0  0  0  0  0  0  0
    4.2690   -0.0600    0.0000 C   0  0  0  0  0  0  0  0  0  0  0  0
    2.5369   -0.0600    0.0000 C   0  0  0  0  0  0  0  0  0  0  0  0
    4.2690    0.9400    0.0000 C   0  0  0  0  0  0  0  0  0  0  0  0
    2.5369    0.9400    0.0000 C   0  0  0  0  0  0  0  0  0  0  0  0
    3.4030    2.4400    0.0000 C   0  0  0  0  0  0  0  0  0  0  0  0
    2.5369   -3.0600    0.0000 C   0  0  0  0  0  0  0  0  0  0  0  0
    2.3249   -1.4774    0.0000 H   0  0  0  0  0  0  0  0  0  0  0  0
    1.9264   -2.1677    0.0000 H   0  0  0  0  0  0  0  0  0  0  0  0
    4.8059   -0.3700    0.0000 H   1  0  0  0  0  0  0  0  0  0  0  0
    2.0000   -0.3700    0.0000 H   1  0  0  0  0  0  0  0  0  0  0  0
    4.8059    1.2500    0.0000 H   1  0  0  0  0  0  0  0  0  0  0  0
    2.0000    1.2500    0.0000 H   1  0  0  0  0  0  0  0  0  0  0  0
    3.4030    3.0600    0.0000 H   1  0  0  0  0  0  0  0  0  0  0  0
    4.0230    2.4400    0.0000 H   1  0  0  0  0  0  0  0  0  0  0  0
    2.7830    2.4400    0.0000 H   1  0  0  0  0  0  0  0  0  0  0  0
    1.9169   -3.0600    0.0000 H   0  0  0  0  0  0  0  0  0  0  0  0
    2.5369   -3.6800    0.0000 H   0  0  0  0  0  0  0  0  0  0  0  0
    3.1569   -3.0600    0.0000 H   0  0  0  0  0  0  0  0  0  0  0  0
  1  4  2  0  0  0  0
  2  4  1  0  0  0  0
  2  6  2  0  0  0  0
  2  7  1  0  0  0  0
  3  8  2  0  0  0  0
  3  9  1  0  0  0  0
  3 10  1  0  0  0  0
  4  5  1  0  0  0  0
  5 11  1  0  0  0  0
  5 12  1  0  0  0  0
  5 13  1  0  0  0  0
  6  8  1  0  0  0  0
  6 14  1  0  0  0  0
  7  9  2  0  0  0  0
  7 15  1  0  0  0  0
  8 16  1  0  0  0  0
  9 17  1  0  0  0  0
 10 18  1  0  0  0  0
 10 19  1  0  0  0  0
 10 20  1  0  0  0  0
 11 21  1  0  0  0  0
 11 22  1  0  0  0  0
 11 23  1  0  0  0  0
M  ISO  7  14   2  15   2  16   2  17   2  18   2  19   2  20   2
M  END
> <PUBCHEM_COMPOUND_CID>
49875583

> <PUBCHEM_COMPOUND_CANONICALIZED>
1

> <PUBCHEM_CACTVS_COMPLEXITY>
132

> <PUBCHEM_CACTVS_HBOND_ACCEPTOR>
1

> <PUBCHEM_CACTVS_HBOND_DONOR>
0

> <PUBCHEM_CACTVS_ROTATABLE_BOND>
2

> <PUBCHEM_CACTVS_SUBSKEYS>
AAADccBwIAAAAAAAAAAAAAAAAAAAAAAAAAAwAAAAAAAAAAABAAAAGgAAAAAADASAmAAyAIAAAACIAqBSAAACAAAkAAAIiAEAAMgIIDKAFRCAIQAggAAIiYcIiMCOQAAAAAAAAACAAAAAAAAAAAAAAAAAAA==

> <PUBCHEM_IUPAC_OPENEYE_NAME>
1-[2,3,5,6-tetradeuterio-4-(trideuteriomethyl)phenyl]propan-1-one

> <PUBCHEM_IUPAC_CAS_NAME>
1-[2,3,5,6-tetradeuterio-4-(trideuteriomethyl)phenyl]-1-propanone

> <PUBCHEM_IUPAC_NAME>
1-[2,3,5,6-tetradeuterio-4-(trideuteriomethyl)phenyl]propan-1-one

> <PUBCHEM_IUPAC_SYSTEMATIC_NAME>
1-[2,3,5,6-tetradeuterio-4-(trideuteriomethyl)phenyl]propan-1-one

> <PUBCHEM_IUPAC_TRADITIONAL_NAME>
1-[2,3,5,6-tetradeuterio-4-(trideuteriomethyl)phenyl]propan-1-one

> <PUBCHEM_IUPAC_INCHI>
InChI=1S/C10H12O/c1-3-10(11)9-6-4-8(2)5-7-9/h4-7H,3H2,1-2H3/i2D3,4D,5D,6D,7D

> <PUBCHEM_IUPAC_INCHIKEY>
PATYHUUYADUHQS-HSIAACOPSA-N

> <PUBCHEM_XLOGP3>
2.6

> <PUBCHEM_EXACT_MASS>
155.132752

> <PUBCHEM_MOLECULAR_FORMULA>
C10H12O

> <PUBCHEM_MOLECULAR_WEIGHT>
155.244812

> <PUBCHEM_OPENEYE_CAN_SMILES>
CCC(=O)C1=CC=C(C=C1)C

> <PUBCHEM_OPENEYE_ISO_SMILES>
[2H]C1=C(C(=C(C(=C1C(=O)CC)[2H])[2H])C([2H])([2H])[2H])[2H]

> <PUBCHEM_CACTVS_TPSA>
17.1

> <PUBCHEM_MONOISOTOPIC_WEIGHT>
155.132752

> <PUBCHEM_TOTAL_CHARGE>
0

> <PUBCHEM_HEAVY_ATOM_COUNT>
11

> <PUBCHEM_ATOM_DEF_STEREO_COUNT>
0

> <PUBCHEM_ATOM_UDEF_STEREO_COUNT>
0

> <PUBCHEM_BOND_DEF_STEREO_COUNT>
0

> <PUBCHEM_BOND_UDEF_STEREO_COUNT>
0

> <PUBCHEM_ISOTOPIC_ATOM_COUNT>
7

> <PUBCHEM_COMPONENT_COUNT>
1

> <PUBCHEM_CACTVS_TAUTO_COUNT>
7

> <PUBCHEM_COORDINATE_TYPE>
1
5
255

> <PUBCHEM_BONDANNOTATIONS>
2  6  8
2  7  8
3  8  8
3  9  8
6  8  8
7  9  8

$$$$
49875690
  -OEChem-11301217592D

 27 28  0     0  0  0  0  0  0999 V2000
    2.0000    1.1690    0.0000 Cl  0  0  0  0  0  0  0  0  0  0  0  0
    5.5443    0.9737    0.0000 N   0  0  0  0  0  0  0  0  0  0  0  0
    5.5443   -0.6357    0.0000 N   0  0  0  0  0  0  0  0  0  0  0  0
    7.6279   -0.6970    0.0000 C   0  0  0  0  0  0  0  0  0  0  0  0
    7.1279    0.1690    0.0000 C   0  0  0  0  0  0  0  0  0  0  0  0
    6.1279    0.1690    0.0000 C   0  0  0  0  0  0  0  0  0  0  0  0
    8.6279   -0.6970    0.0000 C   0  0  0  0  0  0  0  0  0  0  0  0
    7.1279   -1.5630    0.0000 C   0  0  0  0  0  0  0  0  0  0  0  0
    4.5981    0.6690    0.0000 C   0  0  0  0  0  0  0  0  0  0  0  0
    4.5981   -0.3310    0.0000 C   0  0  0  0  0  0  0  0  0  0  0  0
    3.7320    1.1690    0.0000 C   0  0  0  0  0  0  0  0  0  0  0  0
    3.7320   -0.8310    0.0000 C   0  0  0  0  0  0  0  0  0  0  0  0
    2.8660    0.6690    0.0000 C   0  0  0  0  0  0  0  0  0  0  0  0
    2.8660   -0.3310    0.0000 C   0  0  0  0  0  0  0  0  0  0  0  0
    7.0079   -0.6970    0.0000 H   0  0  0  0  0  0  0  0  0  0  0  0
    7.7105    0.3810    0.0000 H   0  0  0  0  0  0  0  0  0  0  0  0
    7.0202    0.7796    0.0000 H   0  0  0  0  0  0  0  0  0  0  0  0
    6.5910   -1.2530    0.0000 H   0  0  0  0  0  0  0  0  0  0  0  0
    6.8179   -2.1000    0.0000 H   0  0  0  0  0  0  0  0  0  0  0  0
    8.6279   -1.3170    0.0000 H   0  0  0  0  0  0  0  0  0  0  0  0
    9.2479   -0.6970    0.0000 H   0  0  0  0  0  0  0  0  0  0  0  0
    8.6279   -0.0770    0.0000 H   0  0  0  0  0  0  0  0  0  0  0  0
    7.6648   -1.8730    0.0000 H   0  0  0  0  0  0  0  0  0  0  0  0
    5.7369    1.5630    0.0000 H   0  0  0  0  0  0  0  0  0  0  0  0
    3.7320    1.7890    0.0000 H   0  0  0  0  0  0  0  0  0  0  0  0
    3.7320   -1.4510    0.0000 H   0  0  0  0  0  0  0  0  0  0  0  0
    2.3291   -0.6410    0.0000 H   0  0  0  0  0  0  0  0  0  0  0  0
  1 13  1  0  0  0  0
  2  6  1  0  0  0  0
  2  9  1  0  0  0  0
  2 24  1  0  0  0  0
  3  6  2  0  0  0  0
  3 10  1  0  0  0  0
  4  5  1  0  0  0  0
  4  7  1  0  0  0  0
  4  8  1  0  0  0  0
  4 15  1  0  0  0  0
  5  6  1  0  0  0  0
  5 16  1  0  0  0  0
  5 17  1  0  0  0  0
  7 20  1  0  0  0  0
  7 21  1  0  0  0  0
  7 22  1  0  0  0  0
  8 18  1  0  0  0  0
  8 19  1  0  0  0  0
  8 23  1  0  0  0  0
  9 10  2  0  0  0  0
  9 11  1  0  0  0  0
 10 12  1  0  0  0  0
 11 13  2  0  0  0  0
 11 25  1  0  0  0  0
 12 14  2  0  0  0  0
 12 26  1  0  0  0  0
 13 14  1  0  0  0  0
 14 27  1  0  0  0  0
M  END
> <PUBCHEM_COMPOUND_CID>
49875690

> <PUBCHEM_COMPOUND_CANONICALIZED>
1

> <PUBCHEM_CACTVS_COMPLEXITY>
196

> <PUBCHEM_CACTVS_HBOND_ACCEPTOR>
1

> <PUBCHEM_CACTVS_HBOND_DONOR>
1

> <PUBCHEM_CACTVS_ROTATABLE_BOND>
2

> <PUBCHEM_CACTVS_SUBSKEYS>
AAADccBzAAAEAAAAAAAAAAAAAAAAAWAAAAAwAAAAAAAAAFgB8AAAHAIQAAAADQqBFyAz0LbJkACgASZiZACCgC2hF6AJmSAwdpiIaKLBm5GUIAhokALIyCcQAAAIAABAAAIAACAAAIAABAAAQAAAAAAAAA==

> <PUBCHEM_IUPAC_OPENEYE_NAME>
6-chloro-2-isobutyl-1H-benzimidazole

> <PUBCHEM_IUPAC_CAS_NAME>
6-chloro-2-(2-methylpropyl)-1H-benzimidazole

> <PUBCHEM_IUPAC_NAME>
6-chloro-2-(2-methylpropyl)-1H-benzimidazole

> <PUBCHEM_IUPAC_SYSTEMATIC_NAME>
6-chloranyl-2-(2-methylpropyl)-1H-benzimidazole

> <PUBCHEM_IUPAC_TRADITIONAL_NAME>
6-chloro-2-isobutyl-1H-benzimidazole

> <PUBCHEM_IUPAC_INCHI>
InChI=1S/C11H13ClN2/c1-7(2)5-11-13-9-4-3-8(12)6-10(9)14-11/h3-4,6-7H,5H2,1-2H3,(H,13,14)

> <PUBCHEM_IUPAC_INCHIKEY>
TVAHQWFLWCOWBT-UHFFFAOYSA-N

> <PUBCHEM_XLOGP3>
4.1

> <PUBCHEM_EXACT_MASS>
208.076726

> <PUBCHEM_MOLECULAR_FORMULA>
C11H13ClN2

> <PUBCHEM_MOLECULAR_WEIGHT>
208.68732

> <PUBCHEM_OPENEYE_CAN_SMILES>
CC(C)CC1=NC2=C(N1)C=C(C=C2)Cl

> <PUBCHEM_OPENEYE_ISO_SMILES>
CC(C)CC1=NC2=C(N1)C=C(C=C2)Cl

> <PUBCHEM_CACTVS_TPSA>
28.7

> <PUBCHEM_MONOISOTOPIC_WEIGHT>
208.076726

> <PUBCHEM_TOTAL_CHARGE>
0

> <PUBCHEM_HEAVY_ATOM_COUNT>
14

> <PUBCHEM_ATOM_DEF_STEREO_COUNT>
0

> <PUBCHEM_ATOM_UDEF_STEREO_COUNT>
0

> <PUBCHEM_BOND_DEF_STEREO_COUNT>
0

> <PUBCHEM_BOND_UDEF_STEREO_COUNT>
0

> <PUBCHEM_ISOTOPIC_ATOM_COUNT>
0

> <PUBCHEM_COMPONENT_COUNT>
1

> <PUBCHEM_CACTVS_TAUTO_COUNT>
3

> <PUBCHEM_COORDINATE_TYPE>
1
5
255

> <PUBCHEM_BONDANNOTATIONS>
10  12  8
11  13  8
12  14  8
13  14  8
2  6  8
2  9  8
3  10  8
3  6  8
9  10  8
9  11  8

$$$$
49878984
  -OEChem-11301217592D

 39 40  0     0  0  0  0  0  0999 V2000
    6.3301   -0.7694    0.0000 O   0  0  0  0  0  0  0  0  0  0  0  0
    4.5981   -0.7694    0.0000 N   0  0  0  0  0  0  0  0  0  0  0  0
    6.3301    2.2306    0.0000 N   0  0  0  0  0  0  0  0  0  0  0  0
    4.5981   -1.7694    0.0000 C   0  0  0  0  0  0  0  0  0  0  0  0
    3.7320   -2.2694    0.0000 C   0  0  0  0  0  0  0  0  0  0  0  0
    6.3301    1.2306    0.0000 C   0  0  0  0  0  0  0  0  0  0  0  0
    5.4641    0.7306    0.0000 C   0  0  0  0  0  0  0  0  0  0  0  0
    5.4641   -2.2694    0.0000 C   0  0  0  0  0  0  0  0  0  0  0  0
    2.8660   -1.7694    0.0000 C   0  0  0  0  0  0  0  0  0  0  0  0
    5.4641   -0.2694    0.0000 C   0  0  0  0  0  0  0  0  0  0  0  0
    3.7320   -3.2694    0.0000 C   0  0  0  0  0  0  0  0  0  0  0  0
    5.4641   -3.2694    0.0000 C   0  0  0  0  0  0  0  0  0  0  0  0
    4.5981   -3.7694    0.0000 C   0  0  0  0  0  0  0  0  0  0  0  0
    6.3301   -1.7694    0.0000 C   0  0  0  0  0  0  0  0  0  0  0  0
    2.0000   -2.2694    0.0000 C   0  0  0  0  0  0  0  0  0  0  0  0
    7.1391    2.8184    0.0000 C   0  0  0  0  0  0  0  0  0  0  0  0
    5.5211    2.8184    0.0000 C   0  0  0  0  0  0  0  0  0  0  0  0
    5.8301    3.7694    0.0000 C   0  0  0  0  0  0  0  0  0  0  0  0
    6.8301    3.7694    0.0000 C   0  0  0  0  0  0  0  0  0  0  0  0
    6.5422    0.6480    0.0000 H   0  0  0  0  0  0  0  0  0  0  0  0
    6.9407    1.3382    0.0000 H   0  0  0  0  0  0  0  0  0  0  0  0
    5.2520    1.3132    0.0000 H   0  0  0  0  0  0  0  0  0  0  0  0
    4.8535    0.6229    0.0000 H   0  0  0  0  0  0  0  0  0  0  0  0
    3.2646   -1.2945    0.0000 H   0  0  0  0  0  0  0  0  0  0  0  0
    2.4675   -1.2945    0.0000 H   0  0  0  0  0  0  0  0  0  0  0  0
    4.0611   -0.4594    0.0000 H   0  0  0  0  0  0  0  0  0  0  0  0
    3.1951   -3.5794    0.0000 H   0  0  0  0  0  0  0  0  0  0  0  0
    6.0010   -3.5794    0.0000 H   0  0  0  0  0  0  0  0  0  0  0  0
    4.5981   -4.3894    0.0000 H   0  0  0  0  0  0  0  0  0  0  0  0
    6.6401   -2.3064    0.0000 H   0  0  0  0  0  0  0  0  0  0  0  0
    6.8671   -1.4594    0.0000 H   0  0  0  0  0  0  0  0  0  0  0  0
    6.0201   -1.2325    0.0000 H   0  0  0  0  0  0  0  0  0  0  0  0
    1.6900   -1.7325    0.0000 H   0  0  0  0  0  0  0  0  0  0  0  0
    1.4631   -2.5794    0.0000 H   0  0  0  0  0  0  0  0  0  0  0  0
    2.3100   -2.8064    0.0000 H   0  0  0  0  0  0  0  0  0  0  0  0
    7.7288    2.6268    0.0000 H   0  0  0  0  0  0  0  0  0  0  0  0
    4.9315    2.6268    0.0000 H   0  0  0  0  0  0  0  0  0  0  0  0
    5.4657    4.2710    0.0000 H   0  0  0  0  0  0  0  0  0  0  0  0
    7.1946    4.2710    0.0000 H   0  0  0  0  0  0  0  0  0  0  0  0
  1 10  2  0  0  0  0
  2  4  1  0  0  0  0
  2 10  1  0  0  0  0
  2 26  1  0  0  0  0
  3  6  1  0  0  0  0
  3 16  1  0  0  0  0
  3 17  1  0  0  0  0
  4  5  1  0  0  0  0
  4  8  2  0  0  0  0
  5  9  1  0  0  0  0
  5 11  2  0  0  0  0
  6  7  1  0  0  0  0
  6 20  1  0  0  0  0
  6 21  1  0  0  0  0
  7 10  1  0  0  0  0
  7 22  1  0  0  0  0
  7 23  1  0  0  0  0
  8 12  1  0  0  0  0
  8 14  1  0  0  0  0
  9 15  1  0  0  0  0
  9 24  1  0  0  0  0
  9 25  1  0  0  0  0
 11 13  1  0  0  0  0
 11 27  1  0  0  0  0
 12 13  2  0  0  0  0
 12 28  1  0  0  0  0
 13 29  1  0  0  0  0
 14 30  1  0  0  0  0
 14 31  1  0  0  0  0
 14 32  1  0  0  0  0
 15 33  1  0  0  0  0
 15 34  1  0  0  0  0
 15 35  1  0  0  0  0
 16 19  2  0  0  0  0
 16 36  1  0  0  0  0
 17 18  2  0  0  0  0
 17 37  1  0  0  0  0
 18 19  1  0  0  0  0
 18 38  1  0  0  0  0
 19 39  1  0  0  0  0
M  END
> <PUBCHEM_COMPOUND_CID>
49878984

> <PUBCHEM_COMPOUND_CANONICALIZED>
1

> <PUBCHEM_CACTVS_COMPLEXITY>
287

> <PUBCHEM_CACTVS_HBOND_ACCEPTOR>
1

> <PUBCHEM_CACTVS_HBOND_DONOR>
1

> <PUBCHEM_CACTVS_ROTATABLE_BOND>
5

> <PUBCHEM_CACTVS_SUBSKEYS>
AAADceB7IAAAAAAAAAAAAAAAAAAAAWAAAAAwAAAAAAAAAAABwAAAHgAQAAAADAjBmgQ+wJPMEACoAjV3VACCgCAxAiAI2CE4ZJgIIOrA0ZGEIAhglADIyAcQgMAOAAACAAACAAAAAAQAAAQAAAAAAAAAAA==

> <PUBCHEM_IUPAC_OPENEYE_NAME>
N-(2-ethyl-6-methyl-phenyl)-3-pyrrol-1-yl-propanamide

> <PUBCHEM_IUPAC_CAS_NAME>
N-(2-ethyl-6-methylphenyl)-3-(1-pyrrolyl)propanamide

> <PUBCHEM_IUPAC_NAME>
N-(2-ethyl-6-methylphenyl)-3-pyrrol-1-ylpropanamide

> <PUBCHEM_IUPAC_SYSTEMATIC_NAME>
N-(2-ethyl-6-methyl-phenyl)-3-pyrrol-1-yl-propanamide

> <PUBCHEM_IUPAC_TRADITIONAL_NAME>
N-(2-ethyl-6-methyl-phenyl)-3-pyrrol-1-yl-propionamide

> <PUBCHEM_IUPAC_INCHI>
InChI=1S/C16H20N2O/c1-3-14-8-6-7-13(2)16(14)17-15(19)9-12-18-10-4-5-11-18/h4-8,10-11H,3,9,12H2,1-2H3,(H,17,19)

> <PUBCHEM_IUPAC_INCHIKEY>
USYLOXOAXLZYCK-UHFFFAOYSA-N

> <PUBCHEM_XLOGP3>
1.7

> <PUBCHEM_EXACT_MASS>
256.157563

> <PUBCHEM_MOLECULAR_FORMULA>
C16H20N2O

> <PUBCHEM_MOLECULAR_WEIGHT>
256.3428

> <PUBCHEM_OPENEYE_CAN_SMILES>
CCC1=CC=CC(=C1NC(=O)CCN2C=CC=C2)C

> <PUBCHEM_OPENEYE_ISO_SMILES>
CCC1=CC=CC(=C1NC(=O)CCN2C=CC=C2)C

> <PUBCHEM_CACTVS_TPSA>
34

> <PUBCHEM_MONOISOTOPIC_WEIGHT>
256.157563

> <PUBCHEM_TOTAL_CHARGE>
0

> <PUBCHEM_HEAVY_ATOM_COUNT>
19

> <PUBCHEM_ATOM_DEF_STEREO_COUNT>
0

> <PUBCHEM_ATOM_UDEF_STEREO_COUNT>
0

> <PUBCHEM_BOND_DEF_STEREO_COUNT>
0

> <PUBCHEM_BOND_UDEF_STEREO_COUNT>
0

> <PUBCHEM_ISOTOPIC_ATOM_COUNT>
0

> <PUBCHEM_COMPONENT_COUNT>
1

> <PUBCHEM_CACTVS_TAUTO_COUNT>
3

> <PUBCHEM_COORDINATE_TYPE>
1
5
255

> <PUBCHEM_BONDANNOTATIONS>
11  13  8
12  13  8
16  19  8
17  18  8
18  19  8
3  16  8
3  17  8
4  5  8
4  8  8
5  11  8
8  12  8

$$$$
