55335724
  -OEChem-11301218082D

 45 47  0     1  0  0  0  0  0999 V2000
   10.5028    1.8212    0.0000 Br  0  0  0  0  0  0  0  0  0  0  0  0
    7.9244   -0.4923    0.0000 O   0  0  0  0  0  0  0  0  0  0  0  0
    4.6783   -3.6710    0.0000 N   0  0  0  0  0  0  0  0  0  0  0  0
    7.5673    1.2025    0.0000 N   0  0  0  0  0  0  0  0  0  0  0  0
    4.9889   -1.1110    0.0000 C   0  0  0  0  0  0  0  0  0  0  0  0
    5.9674   -0.9048    0.0000 C   0  0  0  0  0  0  0  0  0  0  0  0
    4.6783   -2.0615    0.0000 C   0  0  0  0  0  0  0  0  0  0  0  0
    6.2781    0.0458    0.0000 C   0  0  0  0  0  0  0  0  0  0  0  0
    3.7320   -2.3662    0.0000 C   0  0  0  0  0  0  0  0  0  0  0  0
    8.5458    1.4087    0.0000 C   0  0  3  0  0  0  0  0  0  0  0  0
    3.7320   -3.3662    0.0000 C   0  0  0  0  0  0  0  0  0  0  0  0
    5.2619   -2.8662    0.0000 C   0  0  0  0  0  0  0  0  0  0  0  0
    7.2566    0.2520    0.0000 C   0  0  0  0  0  0  0  0  0  0  0  0
    8.8564    2.3592    0.0000 C   0  0  0  0  0  0  0  0  0  0  0  0
    2.8660   -1.8662    0.0000 C   0  0  0  0  0  0  0  0  0  0  0  0
    9.2136    0.6644    0.0000 C   0  0  0  0  0  0  0  0  0  0  0  0
    2.8660   -3.8662    0.0000 C   0  0  0  0  0  0  0  0  0  0  0  0
    2.0000   -2.3662    0.0000 C   0  0  0  0  0  0  0  0  0  0  0  0
    2.0000   -3.3662    0.0000 C   0  0  0  0  0  0  0  0  0  0  0  0
    9.8349    2.5655    0.0000 C   0  0  0  0  0  0  0  0  0  0  0  0
    8.1886    3.1035    0.0000 C   0  0  0  0  0  0  0  0  0  0  0  0
   10.1456    3.5160    0.0000 C   0  0  0  0  0  0  0  0  0  0  0  0
    8.4993    4.0541    0.0000 C   0  0  0  0  0  0  0  0  0  0  0  0
    9.4778    4.2603    0.0000 C   0  0  0  0  0  0  0  0  0  0  0  0
    4.9684   -0.4913    0.0000 H   0  0  0  0  0  0  0  0  0  0  0  0
    4.3751   -1.0236    0.0000 H   0  0  0  0  0  0  0  0  0  0  0  0
    5.9880   -1.5244    0.0000 H   0  0  0  0  0  0  0  0  0  0  0  0
    6.5812   -0.9921    0.0000 H   0  0  0  0  0  0  0  0  0  0  0  0
    6.2575    0.6654    0.0000 H   0  0  0  0  0  0  0  0  0  0  0  0
    5.6643    0.1331    0.0000 H   0  0  0  0  0  0  0  0  0  0  0  0
    8.3532    0.8194    0.0000 H   0  0  0  0  0  0  0  0  0  0  0  0
    5.8819   -2.8662    0.0000 H   0  0  0  0  0  0  0  0  0  0  0  0
    4.8709   -4.2603    0.0000 H   0  0  0  0  0  0  0  0  0  0  0  0
    7.1532    1.6640    0.0000 H   0  0  0  0  0  0  0  0  0  0  0  0
    2.8660   -1.2462    0.0000 H   0  0  0  0  0  0  0  0  0  0  0  0
    8.7522    0.2504    0.0000 H   0  0  0  0  0  0  0  0  0  0  0  0
    9.6277    0.2030    0.0000 H   0  0  0  0  0  0  0  0  0  0  0  0
    9.6751    1.0785    0.0000 H   0  0  0  0  0  0  0  0  0  0  0  0
    2.8660   -4.4862    0.0000 H   0  0  0  0  0  0  0  0  0  0  0  0
    1.4631   -2.0562    0.0000 H   0  0  0  0  0  0  0  0  0  0  0  0
    1.4631   -3.6762    0.0000 H   0  0  0  0  0  0  0  0  0  0  0  0
    7.5819    2.9757    0.0000 H   0  0  0  0  0  0  0  0  0  0  0  0
   10.7523    3.6438    0.0000 H   0  0  0  0  0  0  0  0  0  0  0  0
    8.0852    4.5155    0.0000 H   0  0  0  0  0  0  0  0  0  0  0  0
    9.6704    4.8496    0.0000 H   0  0  0  0  0  0  0  0  0  0  0  0
  1 20  1  0  0  0  0
  2 13  2  0  0  0  0
  3 11  1  0  0  0  0
  3 12  1  0  0  0  0
  3 33  1  0  0  0  0
  4 10  1  0  0  0  0
  4 13  1  0  0  0  0
  4 34  1  0  0  0  0
  5  6  1  0  0  0  0
  5  7  1  0  0  0  0
  5 25  1  0  0  0  0
  5 26  1  0  0  0  0
  6  8  1  0  0  0  0
  6 27  1  0  0  0  0
  6 28  1  0  0  0  0
  7  9  1  0  0  0  0
  7 12  2  0  0  0  0
  8 13  1  0  0  0  0
  8 29  1  0  0  0  0
  8 30  1  0  0  0  0
  9 11  1  0  0  0  0
  9 15  2  0  0  0  0
 10 14  1  0  0  0  0
 10 16  1  0  0  0  0
 10 31  1  0  0  0  0
 11 17  2  0  0  0  0
 12 32  1  0  0  0  0
 14 20  1  0  0  0  0
 14 21  2  0  0  0  0
 15 18  1  0  0  0  0
 15 35  1  0  0  0  0
 16 36  1  0  0  0  0
 16 37  1  0  0  0  0
 16 38  1  0  0  0  0
 17 19  1  0  0  0  0
 17 39  1  0  0  0  0
 18 19  2  0  0  0  0
 18 40  1  0  0  0  0
 19 41  1  0  0  0  0
 20 22  2  0  0  0  0
 21 23  1  0  0  0  0
 21 42  1  0  0  0  0
 22 24  1  0  0  0  0
 22 43  1  0  0  0  0
 23 24  2  0  0  0  0
 23 44  1  0  0  0  0
 24 45  1  0  0  0  0
M  END
> <PUBCHEM_COMPOUND_CID>
55335724

> <PUBCHEM_COMPOUND_CANONICALIZED>
1

> <PUBCHEM_CACTVS_COMPLEXITY>
416

> <PUBCHEM_CACTVS_HBOND_ACCEPTOR>
1

> <PUBCHEM_CACTVS_HBOND_DONOR>
2

> <PUBCHEM_CACTVS_ROTATABLE_BOND>
6

> <PUBCHEM_CACTVS_SUBSKEYS>
AAADceB7IAAAEAAAAAAAAAAAAAAAAWAAAAAwYAAAAAAAAFgB9AAAHgBQAAABrCjBngQ+wPLJkACoAzV3VACCgCAxAiQI2aE4ZLgIIPLAkZGEIAhglgDIyhcYiMCOgAAAAAACgAAAAAAAAAUAAAAAAAAAAA==

> <PUBCHEM_IUPAC_OPENEYE_NAME>
N-[1-(2-bromophenyl)ethyl]-4-(1H-indol-3-yl)butanamide

> <PUBCHEM_IUPAC_CAS_NAME>
N-[1-(2-bromophenyl)ethyl]-4-(1H-indol-3-yl)butanamide

> <PUBCHEM_IUPAC_NAME>
N-[1-(2-bromophenyl)ethyl]-4-(1H-indol-3-yl)butanamide

> <PUBCHEM_IUPAC_SYSTEMATIC_NAME>
N-[1-(2-bromophenyl)ethyl]-4-(1H-indol-3-yl)butanamide

> <PUBCHEM_IUPAC_TRADITIONAL_NAME>
N-[1-(2-bromophenyl)ethyl]-4-(1H-indol-3-yl)butyramide

> <PUBCHEM_IUPAC_INCHI>
InChI=1S/C20H21BrN2O/c1-14(16-8-2-4-10-18(16)21)23-20(24)12-6-7-15-13-22-19-11-5-3-9-17(15)19/h2-5,8-11,13-14,22H,6-7,12H2,1H3,(H,23,24)

> <PUBCHEM_IUPAC_INCHIKEY>
NEWZWIXZWFMMRG-UHFFFAOYSA-N

> <PUBCHEM_XLOGP3>
4.6

> <PUBCHEM_EXACT_MASS>
384.083725

> <PUBCHEM_MOLECULAR_FORMULA>
C20H21BrN2O

> <PUBCHEM_MOLECULAR_WEIGHT>
385.29754

> <PUBCHEM_OPENEYE_CAN_SMILES>
CC(C1=CC=CC=C1Br)NC(=O)CCCC2=CNC3=CC=CC=C32

> <PUBCHEM_OPENEYE_ISO_SMILES>
CC(C1=CC=CC=C1Br)NC(=O)CCCC2=CNC3=CC=CC=C32

> <PUBCHEM_CACTVS_TPSA>
44.9

> <PUBCHEM_MONOISOTOPIC_WEIGHT>
384.083725

> <PUBCHEM_TOTAL_CHARGE>
0

> <PUBCHEM_HEAVY_ATOM_COUNT>
24

> <PUBCHEM_ATOM_DEF_STEREO_COUNT>
0

> <PUBCHEM_ATOM_UDEF_STEREO_COUNT>
1

> <PUBCHEM_BOND_DEF_STEREO_COUNT>
0

> <PUBCHEM_BOND_UDEF_STEREO_COUNT>
0

> <PUBCHEM_ISOTOPIC_ATOM_COUNT>
0

> <PUBCHEM_COMPONENT_COUNT>
1

> <PUBCHEM_CACTVS_TAUTO_COUNT>
2

> <PUBCHEM_COORDINATE_TYPE>
1
5
255

> <PUBCHEM_BONDANNOTATIONS>
10  16  3
11  17  8
14  20  8
14  21  8
15  18  8
17  19  8
18  19  8
20  22  8
21  23  8
22  24  8
23  24  8
3  11  8
3  12  8
7  12  8
7  9  8
9  11  8
9  15  8

$$$$
55341385
  -OEChem-11301218082D

 44 45  0     1  0  0  0  0  0999 V2000
    6.3301   -0.2500    0.0000 O   0  0  0  0  0  0  0  0  0  0  0  0
    4.5981   -0.2500    0.0000 N   0  0  0  0  0  0  0  0  0  0  0  0
    5.4641    1.2500    0.0000 C   0  0  3  0  0  0  0  0  0  0  0  0
    4.5981    1.7500    0.0000 C   0  0  0  0  0  0  0  0  0  0  0  0
    6.3301    1.7500    0.0000 C   0  0  0  0  0  0  0  0  0  0  0  0
    4.5981    2.7500    0.0000 C   0  0  0  0  0  0  0  0  0  0  0  0
    5.4641    0.2500    0.0000 C   0  0  0  0  0  0  0  0  0  0  0  0
    4.5981   -1.2500    0.0000 C   0  0  0  0  0  0  0  0  0  0  0  0
    3.7320    3.2500    0.0000 C   0  0  0  0  0  0  0  0  0  0  0  0
    6.3301    2.7500    0.0000 C   0  0  0  0  0  0  0  0  0  0  0  0
    7.1962    1.2500    0.0000 C   0  0  0  0  0  0  0  0  0  0  0  0
    3.7320   -1.7500    0.0000 C   0  0  0  0  0  0  0  0  0  0  0  0
    2.8660   -1.2500    0.0000 C   0  0  0  0  0  0  0  0  0  0  0  0
    7.1962    3.2500    0.0000 C   0  0  0  0  0  0  0  0  0  0  0  0
    8.0622    1.7500    0.0000 C   0  0  0  0  0  0  0  0  0  0  0  0
    5.4641   -1.7500    0.0000 C   0  0  0  0  0  0  0  0  0  0  0  0
    3.7320   -2.7500    0.0000 C   0  0  0  0  0  0  0  0  0  0  0  0
    8.0622    2.7500    0.0000 C   0  0  0  0  0  0  0  0  0  0  0  0
    5.4641   -2.7500    0.0000 C   0  0  0  0  0  0  0  0  0  0  0  0
    4.5981   -3.2500    0.0000 C   0  0  0  0  0  0  0  0  0  0  0  0
    2.0000   -1.7500    0.0000 C   0  0  0  0  0  0  0  0  0  0  0  0
    5.4641    1.8700    0.0000 H   0  0  0  0  0  0  0  0  0  0  0  0
    3.9875    1.8577    0.0000 H   0  0  0  0  0  0  0  0  0  0  0  0
    4.3860    1.1674    0.0000 H   0  0  0  0  0  0  0  0  0  0  0  0
    5.2087    2.6423    0.0000 H   0  0  0  0  0  0  0  0  0  0  0  0
    4.8101    3.3326    0.0000 H   0  0  0  0  0  0  0  0  0  0  0  0
    4.0611    0.0600    0.0000 H   0  0  0  0  0  0  0  0  0  0  0  0
    4.0420    3.7869    0.0000 H   0  0  0  0  0  0  0  0  0  0  0  0
    3.1951    3.5600    0.0000 H   0  0  0  0  0  0  0  0  0  0  0  0
    3.4220    2.7131    0.0000 H   0  0  0  0  0  0  0  0  0  0  0  0
    5.7932    3.0600    0.0000 H   0  0  0  0  0  0  0  0  0  0  0  0
    7.1962    0.6300    0.0000 H   0  0  0  0  0  0  0  0  0  0  0  0
    3.2646   -0.7751    0.0000 H   0  0  0  0  0  0  0  0  0  0  0  0
    2.4675   -0.7751    0.0000 H   0  0  0  0  0  0  0  0  0  0  0  0
    6.0010   -1.4400    0.0000 H   0  0  0  0  0  0  0  0  0  0  0  0
    7.1962    3.8700    0.0000 H   0  0  0  0  0  0  0  0  0  0  0  0
    8.5991    1.4400    0.0000 H   0  0  0  0  0  0  0  0  0  0  0  0
    3.1951   -3.0600    0.0000 H   0  0  0  0  0  0  0  0  0  0  0  0
    8.5991    3.0600    0.0000 H   0  0  0  0  0  0  0  0  0  0  0  0
    6.0010   -3.0600    0.0000 H   0  0  0  0  0  0  0  0  0  0  0  0
    4.5981   -3.8700    0.0000 H   0  0  0  0  0  0  0  0  0  0  0  0
    1.6900   -1.2131    0.0000 H   0  0  0  0  0  0  0  0  0  0  0  0
    1.4631   -2.0600    0.0000 H   0  0  0  0  0  0  0  0  0  0  0  0
    2.3100   -2.2869    0.0000 H   0  0  0  0  0  0  0  0  0  0  0  0
  1  7  2  0  0  0  0
  2  7  1  0  0  0  0
  2  8  1  0  0  0  0
  2 27  1  0  0  0  0
  3  4  1  0  0  0  0
  3  5  1  0  0  0  0
  3  7  1  0  0  0  0
  3 22  1  0  0  0  0
  4  6  1  0  0  0  0
  4 23  1  0  0  0  0
  4 24  1  0  0  0  0
  5 10  2  0  0  0  0
  5 11  1  0  0  0  0
  6  9  1  0  0  0  0
  6 25  1  0  0  0  0
  6 26  1  0  0  0  0
  8 12  1  0  0  0  0
  8 16  2  0  0  0  0
  9 28  1  0  0  0  0
  9 29  1  0  0  0  0
  9 30  1  0  0  0  0
 10 14  1  0  0  0  0
 10 31  1  0  0  0  0
 11 15  2  0  0  0  0
 11 32  1  0  0  0  0
 12 13  1  0  0  0  0
 12 17  2  0  0  0  0
 13 21  1  0  0  0  0
 13 33  1  0  0  0  0
 13 34  1  0  0  0  0
 14 18  2  0  0  0  0
 14 36  1  0  0  0  0
 15 18  1  0  0  0  0
 15 37  1  0  0  0  0
 16 19  1  0  0  0  0
 16 35  1  0  0  0  0
 17 20  1  0  0  0  0
 17 38  1  0  0  0  0
 18 39  1  0  0  0  0
 19 20  2  0  0  0  0
 19 40  1  0  0  0  0
 20 41  1  0  0  0  0
 21 42  1  0  0  0  0
 21 43  1  0  0  0  0
 21 44  1  0  0  0  0
M  END
> <PUBCHEM_COMPOUND_CID>
55341385

> <PUBCHEM_COMPOUND_CANONICALIZED>
1

> <PUBCHEM_CACTVS_COMPLEXITY>
309

> <PUBCHEM_CACTVS_HBOND_ACCEPTOR>
1

> <PUBCHEM_CACTVS_HBOND_DONOR>
1

> <PUBCHEM_CACTVS_ROTATABLE_BOND>
6

> <PUBCHEM_CACTVS_SUBSKEYS>
AAADceB6IAAAAAAAAAAAAAAAAAAAAAAAAAAwYAAAAAAAAAABQAAAHgAQAAAADQiBmAAywILAAACIAiVSUACCAAAhAgAIiAEAZIgIIDLAlZGEIAhglADIyAcYiMCOgAAAAAACAAAAAAAAAAQAAAAAAAAAAA==

> <PUBCHEM_IUPAC_OPENEYE_NAME>
N-(2-ethylphenyl)-2-phenyl-pentanamide

> <PUBCHEM_IUPAC_CAS_NAME>
N-(2-ethylphenyl)-2-phenylpentanamide

> <PUBCHEM_IUPAC_NAME>
N-(2-ethylphenyl)-2-phenylpentanamide

> <PUBCHEM_IUPAC_SYSTEMATIC_NAME>
N-(2-ethylphenyl)-2-phenyl-pentanamide

> <PUBCHEM_IUPAC_TRADITIONAL_NAME>
N-(2-ethylphenyl)-2-phenyl-valeramide

> <PUBCHEM_IUPAC_INCHI>
InChI=1S/C19H23NO/c1-3-10-17(16-12-6-5-7-13-16)19(21)20-18-14-9-8-11-15(18)4-2/h5-9,11-14,17H,3-4,10H2,1-2H3,(H,20,21)

> <PUBCHEM_IUPAC_INCHIKEY>
XZIHJBBYZSDCDT-UHFFFAOYSA-N

> <PUBCHEM_XLOGP3>
4.4

> <PUBCHEM_EXACT_MASS>
281.177964

> <PUBCHEM_MOLECULAR_FORMULA>
C19H23NO

> <PUBCHEM_MOLECULAR_WEIGHT>
281.39202

> <PUBCHEM_OPENEYE_CAN_SMILES>
CCCC(C1=CC=CC=C1)C(=O)NC2=CC=CC=C2CC

> <PUBCHEM_OPENEYE_ISO_SMILES>
CCCC(C1=CC=CC=C1)C(=O)NC2=CC=CC=C2CC

> <PUBCHEM_CACTVS_TPSA>
29.1

> <PUBCHEM_MONOISOTOPIC_WEIGHT>
281.177964

> <PUBCHEM_TOTAL_CHARGE>
0

> <PUBCHEM_HEAVY_ATOM_COUNT>
21

> <PUBCHEM_ATOM_DEF_STEREO_COUNT>
0

> <PUBCHEM_ATOM_UDEF_STEREO_COUNT>
1

> <PUBCHEM_BOND_DEF_STEREO_COUNT>
0

> <PUBCHEM_BOND_UDEF_STEREO_COUNT>
0

> <PUBCHEM_ISOTOPIC_ATOM_COUNT>
0

> <PUBCHEM_COMPONENT_COUNT>
1

> <PUBCHEM_CACTVS_TAUTO_COUNT>
3

> <PUBCHEM_COORDINATE_TYPE>
1
5
255

> <PUBCHEM_BONDANNOTATIONS>
10  14  8
11  15  8
12  17  8
14  18  8
15  18  8
16  19  8
17  20  8
19  20  8
3  4  3
5  10  8
5  11  8
8  12  8
8  16  8

$$$$
55346464
  -OEChem-11301218082D

 44 46  0     0  0  0  0  0  0999 V2000
    4.5981   -0.7500    0.0000 S   0  0  0  0  0  0  0  0  0  0  0  0
   12.3923   -1.2500    0.0000 F   0  0  0  0  0  0  0  0  0  0  0  0
   12.0263    0.1160    0.0000 F   0  0  0  0  0  0  0  0  0  0  0  0
   11.0263   -1.6160    0.0000 F   0  0  0  0  0  0  0  0  0  0  0  0
    2.0000   -2.2500    0.0000 O   0  0  0  0  0  0  0  0  0  0  0  0
    4.0981    0.1160    0.0000 O   0  0  0  0  0  0  0  0  0  0  0  0
    5.0981   -1.6160    0.0000 O   0  0  0  0  0  0  0  0  0  0  0  0
    8.0622    1.2500    0.0000 O   0  0  0  0  0  0  0  0  0  0  0  0
   10.6603    2.7500    0.0000 O   0  5  0  0  0  0  0  0  0  0  0  0
    8.9282    2.7500    0.0000 O   0  0  0  0  0  0  0  0  0  0  0  0
    3.7320   -1.2500    0.0000 N   0  0  0  0  0  0  0  0  0  0  0  0
    9.7942    2.2500    0.0000 N   0  3  0  0  0  0  0  0  0  0  0  0
    3.7320   -2.2500    0.0000 C   0  0  0  0  0  0  0  0  0  0  0  0
    2.8660   -0.7500    0.0000 C   0  0  0  0  0  0  0  0  0  0  0  0
    2.8660   -2.7500    0.0000 C   0  0  0  0  0  0  0  0  0  0  0  0
    2.0000   -1.2500    0.0000 C   0  0  0  0  0  0  0  0  0  0  0  0
    5.4641   -0.2500    0.0000 C   0  0  0  0  0  0  0  0  0  0  0  0
    5.4641    0.7500    0.0000 C   0  0  0  0  0  0  0  0  0  0  0  0
    6.3301   -0.7500    0.0000 C   0  0  0  0  0  0  0  0  0  0  0  0
    6.3301    1.2500    0.0000 C   0  0  0  0  0  0  0  0  0  0  0  0
    7.1962   -0.2500    0.0000 C   0  0  0  0  0  0  0  0  0  0  0  0
    7.1962    0.7500    0.0000 C   0  0  0  0  0  0  0  0  0  0  0  0
    8.9282    0.7500    0.0000 C   0  0  0  0  0  0  0  0  0  0  0  0
    9.7942    1.2500    0.0000 C   0  0  0  0  0  0  0  0  0  0  0  0
   10.6603   -0.2500    0.0000 C   0  0  0  0  0  0  0  0  0  0  0  0
    8.9282   -0.2500    0.0000 C   0  0  0  0  0  0  0  0  0  0  0  0
   10.6603    0.7500    0.0000 C   0  0  0  0  0  0  0  0  0  0  0  0
    9.7942   -0.7500    0.0000 C   0  0  0  0  0  0  0  0  0  0  0  0
   11.5263   -0.7500    0.0000 C   0  0  0  0  0  0  0  0  0  0  0  0
    3.9441   -2.8326    0.0000 H   0  0  0  0  0  0  0  0  0  0  0  0
    4.3426   -2.1423    0.0000 H   0  0  0  0  0  0  0  0  0  0  0  0
    3.2646   -0.2751    0.0000 H   0  0  0  0  0  0  0  0  0  0  0  0
    2.4675   -0.2751    0.0000 H   0  0  0  0  0  0  0  0  0  0  0  0
    1.7880   -0.6674    0.0000 H   0  0  0  0  0  0  0  0  0  0  0  0
    1.3894   -1.3577    0.0000 H   0  0  0  0  0  0  0  0  0  0  0  0
    2.4675   -3.2250    0.0000 H   0  0  0  0  0  0  0  0  0  0  0  0
    3.2646   -3.2250    0.0000 H   0  0  0  0  0  0  0  0  0  0  0  0
    4.9272    1.0600    0.0000 H   0  0  0  0  0  0  0  0  0  0  0  0
    6.3301   -1.3700    0.0000 H   0  0  0  0  0  0  0  0  0  0  0  0
    6.3301    1.8700    0.0000 H   0  0  0  0  0  0  0  0  0  0  0  0
    7.7331   -0.5600    0.0000 H   0  0  0  0  0  0  0  0  0  0  0  0
    8.3913   -0.5600    0.0000 H   0  0  0  0  0  0  0  0  0  0  0  0
   11.1972    1.0600    0.0000 H   0  0  0  0  0  0  0  0  0  0  0  0
    9.7942   -1.3700    0.0000 H   0  0  0  0  0  0  0  0  0  0  0  0
  1  6  2  0  0  0  0
  1  7  2  0  0  0  0
  1 11  1  0  0  0  0
  1 17  1  0  0  0  0
  2 29  1  0  0  0  0
  3 29  1  0  0  0  0
  4 29  1  0  0  0  0
  5 15  1  0  0  0  0
  5 16  1  0  0  0  0
  8 22  1  0  0  0  0
  8 23  1  0  0  0  0
  9 12  1  0  0  0  0
 10 12  2  0  0  0  0
 11 13  1  0  0  0  0
 11 14  1  0  0  0  0
 12 24  1  0  0  0  0
 13 15  1  0  0  0  0
 13 30  1  0  0  0  0
 13 31  1  0  0  0  0
 14 16  1  0  0  0  0
 14 32  1  0  0  0  0
 14 33  1  0  0  0  0
 15 36  1  0  0  0  0
 15 37  1  0  0  0  0
 16 34  1  0  0  0  0
 16 35  1  0  0  0  0
 17 18  2  0  0  0  0
 17 19  1  0  0  0  0
 18 20  1  0  0  0  0
 18 38  1  0  0  0  0
 19 21  2  0  0  0  0
 19 39  1  0  0  0  0
 20 22  2  0  0  0  0
 20 40  1  0  0  0  0
 21 22  1  0  0  0  0
 21 41  1  0  0  0  0
 23 24  2  0  0  0  0
 23 26  1  0  0  0  0
 24 27  1  0  0  0  0
 25 27  2  0  0  0  0
 25 28  1  0  0  0  0
 25 29  1  0  0  0  0
 26 28  2  0  0  0  0
 26 42  1  0  0  0  0
 27 43  1  0  0  0  0
 28 44  1  0  0  0  0
M  CHG  2   9  -1  12   1
M  END
> <PUBCHEM_COMPOUND_CID>
55346464

> <PUBCHEM_COMPOUND_CANONICALIZED>
1

> <PUBCHEM_CACTVS_COMPLEXITY>
664

> <PUBCHEM_CACTVS_HBOND_ACCEPTOR>
10

> <PUBCHEM_CACTVS_HBOND_DONOR>
0

> <PUBCHEM_CACTVS_ROTATABLE_BOND>
4

> <PUBCHEM_CACTVS_SUBSKEYS>
AAADccB7OYBAAAAAAAAAAAAAAAAAAAAAAAA8YIAAAAAAAAABQAAAHwQEQAAADAzh2BYwx4IQRAKBAiRCQ3DCCBAgIgAoiBgPbIoOJiKEsZuDOCDkwFGY6AeQwAAOIIAAQAAAEABBAACAAAAgAAAAAAAAAA==

> <PUBCHEM_IUPAC_OPENEYE_NAME>
4-[4-[2-nitro-4-(trifluoromethyl)phenoxy]phenyl]sulfonylmorpholine

> <PUBCHEM_IUPAC_CAS_NAME>
4-[4-[2-nitro-4-(trifluoromethyl)phenoxy]phenyl]sulfonylmorpholine

> <PUBCHEM_IUPAC_NAME>
4-[4-[2-nitro-4-(trifluoromethyl)phenoxy]phenyl]sulfonylmorpholine

> <PUBCHEM_IUPAC_SYSTEMATIC_NAME>
4-[4-[2-nitro-4-(trifluoromethyl)phenoxy]phenyl]sulfonylmorpholine

> <PUBCHEM_IUPAC_TRADITIONAL_NAME>
4-[4-[2-nitro-4-(trifluoromethyl)phenoxy]phenyl]sulfonylmorpholine

> <PUBCHEM_IUPAC_INCHI>
InChI=1S/C17H15F3N2O6S/c18-17(19,20)12-1-6-16(15(11-12)22(23)24)28-13-2-4-14(5-3-13)29(25,26)21-7-9-27-10-8-21/h1-6,11H,7-10H2

> <PUBCHEM_IUPAC_INCHIKEY>
MBVDHRJCOAUVJP-UHFFFAOYSA-N

> <PUBCHEM_XLOGP3>
2.6

> <PUBCHEM_EXACT_MASS>
432.060292

> <PUBCHEM_MOLECULAR_FORMULA>
C17H15F3N2O6S

> <PUBCHEM_MOLECULAR_WEIGHT>
432.37101

> <PUBCHEM_OPENEYE_CAN_SMILES>
C1COCCN1S(=O)(=O)C2=CC=C(C=C2)OC3=C(C=C(C=C3)C(F)(F)F)[N+](=O)[O-]

> <PUBCHEM_OPENEYE_ISO_SMILES>
C1COCCN1S(=O)(=O)C2=CC=C(C=C2)OC3=C(C=C(C=C3)C(F)(F)F)[N+](=O)[O-]

> <PUBCHEM_CACTVS_TPSA>
110

> <PUBCHEM_MONOISOTOPIC_WEIGHT>
432.060292

> <PUBCHEM_TOTAL_CHARGE>
0

> <PUBCHEM_HEAVY_ATOM_COUNT>
29

> <PUBCHEM_ATOM_DEF_STEREO_COUNT>
0

> <PUBCHEM_ATOM_UDEF_STEREO_COUNT>
0

> <PUBCHEM_BOND_DEF_STEREO_COUNT>
0

> <PUBCHEM_BOND_UDEF_STEREO_COUNT>
0

> <PUBCHEM_ISOTOPIC_ATOM_COUNT>
0

> <PUBCHEM_COMPONENT_COUNT>
1

> <PUBCHEM_CACTVS_TAUTO_COUNT>
1

> <PUBCHEM_COORDINATE_TYPE>
1
5
255

> <PUBCHEM_BONDANNOTATIONS>
17  18  8
17  19  8
18  20  8
19  21  8
20  22  8
21  22  8
23  24  8
23  26  8
24  27  8
25  27  8
25  28  8
26  28  8

$$$$
55349990
  -OEChem-11301218082D

 38 38  0     0  0  0  0  0  0999 V2000
    3.7320    1.2500    0.0000 O   0  0  0  0  0  0  0  0  0  0  0  0
    5.4641    1.2500    0.0000 N   0  0  0  0  0  0  0  0  0  0  0  0
    5.4641    2.2500    0.0000 C   0  0  0  0  0  0  0  0  0  0  0  0
    6.3301    2.7500    0.0000 C   0  0  0  0  0  0  0  0  0  0  0  0
    4.5981    2.7500    0.0000 C   0  0  0  0  0  0  0  0  0  0  0  0
    6.3301    3.7500    0.0000 C   0  0  0  0  0  0  0  0  0  0  0  0
    4.5981    3.7500    0.0000 C   0  0  0  0  0  0  0  0  0  0  0  0
    4.5981    0.7500    0.0000 C   0  0  0  0  0  0  0  0  0  0  0  0
    4.5981   -0.2500    0.0000 C   0  0  0  0  0  0  0  0  0  0  0  0
    3.7320   -1.7500    0.0000 C   0  0  0  0  0  0  0  0  0  0  0  0
    3.7320   -0.7500    0.0000 C   0  0  0  0  0  0  0  0  0  0  0  0
    2.8660   -2.2500    0.0000 C   0  0  0  0  0  0  0  0  0  0  0  0
    2.8660   -3.2500    0.0000 C   0  0  0  0  0  0  0  0  0  0  0  0
    4.5981   -2.2500    0.0000 C   0  0  0  0  0  0  0  0  0  0  0  0
    3.7320   -3.7500    0.0000 C   0  0  0  0  0  0  0  0  0  0  0  0
    4.5981   -3.2500    0.0000 C   0  0  0  0  0  0  0  0  0  0  0  0
    2.0000   -3.7500    0.0000 C   0  0  0  0  0  0  0  0  0  0  0  0
    6.0010    1.9400    0.0000 H   0  0  0  0  0  0  0  0  0  0  0  0
    3.9875    2.8577    0.0000 H   0  0  0  0  0  0  0  0  0  0  0  0
    4.3860    2.1674    0.0000 H   0  0  0  0  0  0  0  0  0  0  0  0
    6.5422    2.1674    0.0000 H   0  0  0  0  0  0  0  0  0  0  0  0
    6.9407    2.8577    0.0000 H   0  0  0  0  0  0  0  0  0  0  0  0
    6.0010    0.9400    0.0000 H   0  0  0  0  0  0  0  0  0  0  0  0
    6.9501    3.7500    0.0000 H   0  0  0  0  0  0  0  0  0  0  0  0
    5.2181    3.7500    0.0000 H   0  0  0  0  0  0  0  0  0  0  0  0
    4.5981    4.3700    0.0000 H   0  0  0  0  0  0  0  0  0  0  0  0
    3.9781    3.7500    0.0000 H   0  0  0  0  0  0  0  0  0  0  0  0
    6.3301    4.3700    0.0000 H   0  0  0  0  0  0  0  0  0  0  0  0
    5.7101    3.7500    0.0000 H   0  0  0  0  0  0  0  0  0  0  0  0
    5.1350   -0.5600    0.0000 H   0  0  0  0  0  0  0  0  0  0  0  0
    3.1951   -0.4400    0.0000 H   0  0  0  0  0  0  0  0  0  0  0  0
    2.3291   -1.9400    0.0000 H   0  0  0  0  0  0  0  0  0  0  0  0
    5.1350   -1.9400    0.0000 H   0  0  0  0  0  0  0  0  0  0  0  0
    3.7320   -4.3700    0.0000 H   0  0  0  0  0  0  0  0  0  0  0  0
    5.1350   -3.5600    0.0000 H   0  0  0  0  0  0  0  0  0  0  0  0
    1.6900   -3.2131    0.0000 H   0  0  0  0  0  0  0  0  0  0  0  0
    1.4631   -4.0600    0.0000 H   0  0  0  0  0  0  0  0  0  0  0  0
    2.3100   -4.2869    0.0000 H   0  0  0  0  0  0  0  0  0  0  0  0
  1  8  2  0  0  0  0
  2  3  1  0  0  0  0
  2  8  1  0  0  0  0
  2 23  1  0  0  0  0
  3  4  1  0  0  0  0
  3  5  1  0  0  0  0
  3 18  1  0  0  0  0
  4  6  1  0  0  0  0
  4 21  1  0  0  0  0
  4 22  1  0  0  0  0
  5  7  1  0  0  0  0
  5 19  1  0  0  0  0
  5 20  1  0  0  0  0
  6 24  1  0  0  0  0
  6 28  1  0  0  0  0
  6 29  1  0  0  0  0
  7 25  1  0  0  0  0
  7 26  1  0  0  0  0
  7 27  1  0  0  0  0
  8  9  1  0  0  0  0
  9 11  2  0  0  0  0
  9 30  1  0  0  0  0
 10 11  1  0  0  0  0
 10 12  1  0  0  0  0
 10 14  2  0  0  0  0
 11 31  1  0  0  0  0
 12 13  2  0  0  0  0
 12 32  1  0  0  0  0
 13 15  1  0  0  0  0
 13 17  1  0  0  0  0
 14 16  1  0  0  0  0
 14 33  1  0  0  0  0
 15 16  2  0  0  0  0
 15 34  1  0  0  0  0
 16 35  1  0  0  0  0
 17 36  1  0  0  0  0
 17 37  1  0  0  0  0
 17 38  1  0  0  0  0
M  END
> <PUBCHEM_COMPOUND_CID>
55349990

> <PUBCHEM_COMPOUND_CANONICALIZED>
1

> <PUBCHEM_CACTVS_COMPLEXITY>
256

> <PUBCHEM_CACTVS_HBOND_ACCEPTOR>
1

> <PUBCHEM_CACTVS_HBOND_DONOR>
1

> <PUBCHEM_CACTVS_ROTATABLE_BOND>
5

> <PUBCHEM_CACTVS_SUBSKEYS>
AAADceByIAAAAAAAAAAAAAAAAAAAAAAAAAAwAAAAAAAAAAABAAAAHgAQAAAADCjBmAQyAILAAACIAiFSEACCAAAgAAAIiIAIAMgIICKAERCEIAAglgCIiYcAgEAOAAACAAAAAAAAAAQAAAAAAAAAAAAAAA==

> <PUBCHEM_IUPAC_OPENEYE_NAME>
(E)-N-(1-ethylpropyl)-3-(m-tolyl)prop-2-enamide

> <PUBCHEM_IUPAC_CAS_NAME>
(E)-3-(3-methylphenyl)-N-pentan-3-yl-2-propenamide

> <PUBCHEM_IUPAC_NAME>
(E)-3-(3-methylphenyl)-N-pentan-3-ylprop-2-enamide

> <PUBCHEM_IUPAC_SYSTEMATIC_NAME>
(E)-3-(3-methylphenyl)-N-pentan-3-yl-prop-2-enamide

> <PUBCHEM_IUPAC_TRADITIONAL_NAME>
(E)-N-(1-ethylpropyl)-3-(m-tolyl)acrylamide

> <PUBCHEM_IUPAC_INCHI>
InChI=1S/C15H21NO/c1-4-14(5-2)16-15(17)10-9-13-8-6-7-12(3)11-13/h6-11,14H,4-5H2,1-3H3,(H,16,17)/b10-9+

> <PUBCHEM_IUPAC_INCHIKEY>
FFRLDMKBVKQUCS-MDZDMXLPSA-N

> <PUBCHEM_XLOGP3>
3.7

> <PUBCHEM_EXACT_MASS>
231.162314

> <PUBCHEM_MOLECULAR_FORMULA>
C15H21NO

> <PUBCHEM_MOLECULAR_WEIGHT>
231.33334

> <PUBCHEM_OPENEYE_CAN_SMILES>
CCC(CC)NC(=O)C=CC1=CC(=CC=C1)C

> <PUBCHEM_OPENEYE_ISO_SMILES>
CCC(CC)NC(=O)/C=C/C1=CC(=CC=C1)C

> <PUBCHEM_CACTVS_TPSA>
29.1

> <PUBCHEM_MONOISOTOPIC_WEIGHT>
231.162314

> <PUBCHEM_TOTAL_CHARGE>
0

> <PUBCHEM_HEAVY_ATOM_COUNT>
17

> <PUBCHEM_ATOM_DEF_STEREO_COUNT>
0

> <PUBCHEM_ATOM_UDEF_STEREO_COUNT>
0

> <PUBCHEM_BOND_DEF_STEREO_COUNT>
1

> <PUBCHEM_BOND_UDEF_STEREO_COUNT>
0

> <PUBCHEM_ISOTOPIC_ATOM_COUNT>
0

> <PUBCHEM_COMPONENT_COUNT>
1

> <PUBCHEM_CACTVS_TAUTO_COUNT>
2

> <PUBCHEM_COORDINATE_TYPE>
1
5
255

> <PUBCHEM_BONDANNOTATIONS>
10  12  8
10  14  8
12  13  8
13  15  8
14  16  8
15  16  8

$$$$
