39158272
  -OEChem-06111304242D

 34 36  0     0  0  0  0  0  0999 V2000
    5.5443    0.9737    0.0000 N   0  0  0  0  0  0  0  0  0  0  0  0
    5.5443   -0.6357    0.0000 N   0  0  0  0  0  0  0  0  0  0  0  0
    4.5981    0.6690    0.0000 C   0  0  0  0  0  0  0  0  0  0  0  0
    4.5981   -0.3310    0.0000 C   0  0  0  0  0  0  0  0  0  0  0  0
    6.1279    0.1690    0.0000 C   0  0  0  0  0  0  0  0  0  0  0  0
    2.8660    0.6690    0.0000 C   0  0  0  0  0  0  0  0  0  0  0  0
    2.8660   -0.3310    0.0000 C   0  0  0  0  0  0  0  0  0  0  0  0
    3.7320    1.1690    0.0000 C   0  0  0  0  0  0  0  0  0  0  0  0
    3.7320   -0.8310    0.0000 C   0  0  0  0  0  0  0  0  0  0  0  0
    7.1279    0.1690    0.0000 C   0  0  0  0  0  0  0  0  0  0  0  0
    2.0000    1.1690    0.0000 C   0  0  0  0  0  0  0  0  0  0  0  0
    7.6279   -0.6970    0.0000 C   0  0  0  0  0  0  0  0  0  0  0  0
    2.0000   -0.8310    0.0000 C   0  0  0  0  0  0  0  0  0  0  0  0
    7.6279    1.0350    0.0000 C   0  0  0  0  0  0  0  0  0  0  0  0
    8.6279   -0.6970    0.0000 C   0  0  0  0  0  0  0  0  0  0  0  0
    8.6279    1.0350    0.0000 C   0  0  0  0  0  0  0  0  0  0  0  0
    9.1279    0.1690    0.0000 C   0  0  0  0  0  0  0  0  0  0  0  0
    9.1279   -1.5630    0.0000 C   0  0  0  0  0  0  0  0  0  0  0  0
    5.7369    1.5630    0.0000 H   0  0  0  0  0  0  0  0  0  0  0  0
    3.7320    1.7890    0.0000 H   0  0  0  0  0  0  0  0  0  0  0  0
    3.7320   -1.4510    0.0000 H   0  0  0  0  0  0  0  0  0  0  0  0
    7.3179   -1.2340    0.0000 H   0  0  0  0  0  0  0  0  0  0  0  0
    2.3100    1.7059    0.0000 H   0  0  0  0  0  0  0  0  0  0  0  0
    1.4631    1.4790    0.0000 H   0  0  0  0  0  0  0  0  0  0  0  0
    1.6900    0.6321    0.0000 H   0  0  0  0  0  0  0  0  0  0  0  0
    1.6900   -0.2941    0.0000 H   0  0  0  0  0  0  0  0  0  0  0  0
    1.4631   -1.1410    0.0000 H   0  0  0  0  0  0  0  0  0  0  0  0
    2.3100   -1.3679    0.0000 H   0  0  0  0  0  0  0  0  0  0  0  0
    7.3179    1.5720    0.0000 H   0  0  0  0  0  0  0  0  0  0  0  0
    8.9379    1.5720    0.0000 H   0  0  0  0  0  0  0  0  0  0  0  0
    9.7479    0.1690    0.0000 H   0  0  0  0  0  0  0  0  0  0  0  0
    8.5910   -1.8730    0.0000 H   0  0  0  0  0  0  0  0  0  0  0  0
    9.4379   -2.1000    0.0000 H   0  0  0  0  0  0  0  0  0  0  0  0
    9.6648   -1.2530    0.0000 H   0  0  0  0  0  0  0  0  0  0  0  0
  1  3  1  0  0  0  0
  1  5  1  0  0  0  0
  1 19  1  0  0  0  0
  2  4  1  0  0  0  0
  2  5  2  0  0  0  0
  3  4  2  0  0  0  0
  3  8  1  0  0  0  0
  4  9  1  0  0  0  0
  5 10  1  0  0  0  0
  6  7  1  0  0  0  0
  6  8  2  0  0  0  0
  6 11  1  0  0  0  0
  7  9  2  0  0  0  0
  7 13  1  0  0  0  0
  8 20  1  0  0  0  0
  9 21  1  0  0  0  0
 10 12  1  0  0  0  0
 10 14  2  0  0  0  0
 11 23  1  0  0  0  0
 11 24  1  0  0  0  0
 11 25  1  0  0  0  0
 12 15  2  0  0  0  0
 12 22  1  0  0  0  0
 13 26  1  0  0  0  0
 13 27  1  0  0  0  0
 13 28  1  0  0  0  0
 14 16  1  0  0  0  0
 14 29  1  0  0  0  0
 15 17  1  0  0  0  0
 15 18  1  0  0  0  0
 16 17  2  0  0  0  0
 16 30  1  0  0  0  0
 17 31  1  0  0  0  0
 18 32  1  0  0  0  0
 18 33  1  0  0  0  0
 18 34  1  0  0  0  0
M  END
> <PUBCHEM_COMPOUND_CID>
39158272

> <PUBCHEM_COMPOUND_CANONICALIZED>
1

> <PUBCHEM_CACTVS_COMPLEXITY>
291

> <PUBCHEM_CACTVS_HBOND_ACCEPTOR>
1

> <PUBCHEM_CACTVS_HBOND_DONOR>
1

> <PUBCHEM_CACTVS_ROTATABLE_BOND>
1

> <PUBCHEM_CACTVS_SUBSKEYS>
AAADceB7AAAAAAAAAAAAAAAAAAAAAWAAAAAwYAAAAAAAAFgB9AAAHAAQAAAADAiBHwAz0LbJkACgAyZiZACCgC2hEqAJmSAwdJiIaKLAmZGUIAhokALIyCcQgMAOiAACQAAQACAQAASAACAAQAAAAAAAAA==

> <PUBCHEM_IUPAC_OPENEYE_NAME>
5,6-dimethyl-2-(m-tolyl)-1H-benzimidazole

> <PUBCHEM_IUPAC_CAS_NAME>
5,6-dimethyl-2-(3-methylphenyl)-1H-benzimidazole

> <PUBCHEM_IUPAC_NAME>
5,6-dimethyl-2-(3-methylphenyl)-1H-benzimidazole

> <PUBCHEM_IUPAC_SYSTEMATIC_NAME>
5,6-dimethyl-2-(3-methylphenyl)-1H-benzimidazole

> <PUBCHEM_IUPAC_TRADITIONAL_NAME>
5,6-dimethyl-2-(m-tolyl)-1H-benzimidazole

> <PUBCHEM_IUPAC_INCHI>
InChI=1S/C16H16N2/c1-10-5-4-6-13(7-10)16-17-14-8-11(2)12(3)9-15(14)18-16/h4-9H,1-3H3,(H,17,18)

> <PUBCHEM_IUPAC_INCHIKEY>
CKNQKXSHINNBNN-UHFFFAOYSA-N

> <PUBCHEM_XLOGP3>
4.3

> <PUBCHEM_EXACT_MASS>
236.131349

> <PUBCHEM_MOLECULAR_FORMULA>
C16H16N2

> <PUBCHEM_MOLECULAR_WEIGHT>
236.31164

> <PUBCHEM_OPENEYE_CAN_SMILES>
CC1=CC=CC(=C1)C2=NC3=C(N2)C=C(C(=C3)C)C

> <PUBCHEM_OPENEYE_ISO_SMILES>
CC1=CC=CC(=C1)C2=NC3=C(N2)C=C(C(=C3)C)C

> <PUBCHEM_CACTVS_TPSA>
28.7

> <PUBCHEM_MONOISOTOPIC_WEIGHT>
236.131349

> <PUBCHEM_TOTAL_CHARGE>
0

> <PUBCHEM_HEAVY_ATOM_COUNT>
18

> <PUBCHEM_ATOM_DEF_STEREO_COUNT>
0

> <PUBCHEM_ATOM_UDEF_STEREO_COUNT>
0

> <PUBCHEM_BOND_DEF_STEREO_COUNT>
0

> <PUBCHEM_BOND_UDEF_STEREO_COUNT>
0

> <PUBCHEM_ISOTOPIC_ATOM_COUNT>
0

> <PUBCHEM_COMPONENT_COUNT>
1

> <PUBCHEM_CACTVS_TAUTO_COUNT>
1

> <PUBCHEM_COORDINATE_TYPE>
1
5
255

> <PUBCHEM_BONDANNOTATIONS>
1  3  8
1  5  8
10  12  8
10  14  8
12  15  8
14  16  8
15  17  8
16  17  8
2  4  8
2  5  8
3  4  8
3  8  8
4  9  8
6  7  8
6  8  8
7  9  8

$$$$
39158277
  -OEChem-06111304242D

 31 33  0     0  0  0  0  0  0999 V2000
   10.1279   -0.1970    0.0000 Br  0  0  0  0  0  0  0  0  0  0  0  0
    5.5443    0.6077    0.0000 N   0  0  0  0  0  0  0  0  0  0  0  0
    5.5443   -1.0018    0.0000 N   0  0  0  0  0  0  0  0  0  0  0  0
    4.5981    0.3030    0.0000 C   0  0  0  0  0  0  0  0  0  0  0  0
    4.5981   -0.6970    0.0000 C   0  0  0  0  0  0  0  0  0  0  0  0
    2.8660    0.3030    0.0000 C   0  0  0  0  0  0  0  0  0  0  0  0
    2.8660   -0.6970    0.0000 C   0  0  0  0  0  0  0  0  0  0  0  0
    6.1279   -0.1970    0.0000 C   0  0  0  0  0  0  0  0  0  0  0  0
    3.7320    0.8030    0.0000 C   0  0  0  0  0  0  0  0  0  0  0  0
    3.7320   -1.1970    0.0000 C   0  0  0  0  0  0  0  0  0  0  0  0
    7.1279   -0.1970    0.0000 C   0  0  0  0  0  0  0  0  0  0  0  0
    2.0000    0.8030    0.0000 C   0  0  0  0  0  0  0  0  0  0  0  0
    2.0000   -1.1970    0.0000 C   0  0  0  0  0  0  0  0  0  0  0  0
    7.6279   -1.0630    0.0000 C   0  0  0  0  0  0  0  0  0  0  0  0
    7.6279    0.6690    0.0000 C   0  0  0  0  0  0  0  0  0  0  0  0
    8.6279   -1.0630    0.0000 C   0  0  0  0  0  0  0  0  0  0  0  0
    8.6279    0.6690    0.0000 C   0  0  0  0  0  0  0  0  0  0  0  0
    9.1279   -0.1970    0.0000 C   0  0  0  0  0  0  0  0  0  0  0  0
    3.7320    1.4230    0.0000 H   0  0  0  0  0  0  0  0  0  0  0  0
    5.7369    1.1970    0.0000 H   0  0  0  0  0  0  0  0  0  0  0  0
    3.7320   -1.8170    0.0000 H   0  0  0  0  0  0  0  0  0  0  0  0
    2.3100    1.3399    0.0000 H   0  0  0  0  0  0  0  0  0  0  0  0
    1.4631    1.1130    0.0000 H   0  0  0  0  0  0  0  0  0  0  0  0
    1.6900    0.2660    0.0000 H   0  0  0  0  0  0  0  0  0  0  0  0
    1.6900   -0.6601    0.0000 H   0  0  0  0  0  0  0  0  0  0  0  0
    1.4631   -1.5070    0.0000 H   0  0  0  0  0  0  0  0  0  0  0  0
    2.3100   -1.7340    0.0000 H   0  0  0  0  0  0  0  0  0  0  0  0
    7.3179   -1.6000    0.0000 H   0  0  0  0  0  0  0  0  0  0  0  0
    7.3179    1.2059    0.0000 H   0  0  0  0  0  0  0  0  0  0  0  0
    8.9379   -1.6000    0.0000 H   0  0  0  0  0  0  0  0  0  0  0  0
    8.9379    1.2059    0.0000 H   0  0  0  0  0  0  0  0  0  0  0  0
  1 18  1  0  0  0  0
  2  4  1  0  0  0  0
  2  8  1  0  0  0  0
  2 20  1  0  0  0  0
  3  5  1  0  0  0  0
  3  8  2  0  0  0  0
  4  5  2  0  0  0  0
  4  9  1  0  0  0  0
  5 10  1  0  0  0  0
  6  7  1  0  0  0  0
  6  9  2  0  0  0  0
  6 12  1  0  0  0  0
  7 10  2  0  0  0  0
  7 13  1  0  0  0  0
  8 11  1  0  0  0  0
  9 19  1  0  0  0  0
 10 21  1  0  0  0  0
 11 14  2  0  0  0  0
 11 15  1  0  0  0  0
 12 22  1  0  0  0  0
 12 23  1  0  0  0  0
 12 24  1  0  0  0  0
 13 25  1  0  0  0  0
 13 26  1  0  0  0  0
 13 27  1  0  0  0  0
 14 16  1  0  0  0  0
 14 28  1  0  0  0  0
 15 17  2  0  0  0  0
 15 29  1  0  0  0  0
 16 18  2  0  0  0  0
 16 30  1  0  0  0  0
 17 18  1  0  0  0  0
 17 31  1  0  0  0  0
M  END
> <PUBCHEM_COMPOUND_CID>
39158277

> <PUBCHEM_COMPOUND_CANONICALIZED>
1

> <PUBCHEM_CACTVS_COMPLEXITY>
288

> <PUBCHEM_CACTVS_HBOND_ACCEPTOR>
1

> <PUBCHEM_CACTVS_HBOND_DONOR>
1

> <PUBCHEM_CACTVS_ROTATABLE_BOND>
1

> <PUBCHEM_CACTVS_SUBSKEYS>
AAADccBzAAAAEAAAAAAAAAAAAAAAAWAAAAAwYAAAAAAAAFgB9AAAHABQAAABrAiBHwAz0LbJkACgAyZiZACCgC2hEqQJmSAwdLiIaKLAmZGUIAhokALIyjcQgIAOigAAQAAQACAUAACAACAAQAAAAAAAAA==

> <PUBCHEM_IUPAC_OPENEYE_NAME>
2-(4-bromophenyl)-5,6-dimethyl-1H-benzimidazole

> <PUBCHEM_IUPAC_CAS_NAME>
2-(4-bromophenyl)-5,6-dimethyl-1H-benzimidazole

> <PUBCHEM_IUPAC_NAME>
2-(4-bromophenyl)-5,6-dimethyl-1H-benzimidazole

> <PUBCHEM_IUPAC_SYSTEMATIC_NAME>
2-(4-bromophenyl)-5,6-dimethyl-1H-benzimidazole

> <PUBCHEM_IUPAC_TRADITIONAL_NAME>
2-(4-bromophenyl)-5,6-dimethyl-1H-benzimidazole

> <PUBCHEM_IUPAC_INCHI>
InChI=1S/C15H13BrN2/c1-9-7-13-14(8-10(9)2)18-15(17-13)11-3-5-12(16)6-4-11/h3-8H,1-2H3,(H,17,18)

> <PUBCHEM_IUPAC_INCHIKEY>
NSRJAJXNTPMGSG-UHFFFAOYSA-N

> <PUBCHEM_XLOGP3>
4.7

> <PUBCHEM_EXACT_MASS>
300.026211

> <PUBCHEM_MOLECULAR_FORMULA>
C15H13BrN2

> <PUBCHEM_MOLECULAR_WEIGHT>
301.18112

> <PUBCHEM_OPENEYE_CAN_SMILES>
CC1=CC2=C(C=C1C)N=C(N2)C3=CC=C(C=C3)Br

> <PUBCHEM_OPENEYE_ISO_SMILES>
CC1=CC2=C(C=C1C)N=C(N2)C3=CC=C(C=C3)Br

> <PUBCHEM_CACTVS_TPSA>
28.7

> <PUBCHEM_MONOISOTOPIC_WEIGHT>
300.026211

> <PUBCHEM_TOTAL_CHARGE>
0

> <PUBCHEM_HEAVY_ATOM_COUNT>
18

> <PUBCHEM_ATOM_DEF_STEREO_COUNT>
0

> <PUBCHEM_ATOM_UDEF_STEREO_COUNT>
0

> <PUBCHEM_BOND_DEF_STEREO_COUNT>
0

> <PUBCHEM_BOND_UDEF_STEREO_COUNT>
0

> <PUBCHEM_ISOTOPIC_ATOM_COUNT>
0

> <PUBCHEM_COMPONENT_COUNT>
1

> <PUBCHEM_CACTVS_TAUTO_COUNT>
1

> <PUBCHEM_COORDINATE_TYPE>
1
5
255

> <PUBCHEM_BONDANNOTATIONS>
11  14  8
11  15  8
14  16  8
15  17  8
16  18  8
17  18  8
2  4  8
2  8  8
3  5  8
3  8  8
4  5  8
4  9  8
5  10  8
6  7  8
6  9  8
7  10  8

$$$$
39158426
  -OEChem-06111304242D

 22 24  0     0  0  0  0  0  0999 V2000
    2.0000    0.8030    0.0000 Cl  0  0  0  0  0  0  0  0  0  0  0  0
    2.0000   -1.1970    0.0000 Cl  0  0  0  0  0  0  0  0  0  0  0  0
    5.5443    0.6077    0.0000 N   0  0  0  0  0  0  0  0  0  0  0  0
    5.5443   -1.0018    0.0000 N   0  0  0  0  0  0  0  0  0  0  0  0
    7.1279   -0.1970    0.0000 C   0  0  0  0  0  0  0  0  0  0  0  0
    7.9939   -0.6970    0.0000 C   0  0  0  0  0  0  0  0  0  0  0  0
    7.9939    0.3030    0.0000 C   0  0  0  0  0  0  0  0  0  0  0  0
    6.1279   -0.1970    0.0000 C   0  0  0  0  0  0  0  0  0  0  0  0
    4.5981    0.3030    0.0000 C   0  0  0  0  0  0  0  0  0  0  0  0
    4.5981   -0.6970    0.0000 C   0  0  0  0  0  0  0  0  0  0  0  0
    3.7320    0.8030    0.0000 C   0  0  0  0  0  0  0  0  0  0  0  0
    3.7320   -1.1970    0.0000 C   0  0  0  0  0  0  0  0  0  0  0  0
    2.8660    0.3030    0.0000 C   0  0  0  0  0  0  0  0  0  0  0  0
    2.8660   -0.6970    0.0000 C   0  0  0  0  0  0  0  0  0  0  0  0
    6.9674    0.4018    0.0000 H   0  0  0  0  0  0  0  0  0  0  0  0
    7.7819   -1.2796    0.0000 H   0  0  0  0  0  0  0  0  0  0  0  0
    8.6045   -0.8047    0.0000 H   0  0  0  0  0  0  0  0  0  0  0  0
    8.6045    0.4106    0.0000 H   0  0  0  0  0  0  0  0  0  0  0  0
    7.7819    0.8856    0.0000 H   0  0  0  0  0  0  0  0  0  0  0  0
    5.7369    1.1970    0.0000 H   0  0  0  0  0  0  0  0  0  0  0  0
    3.7320    1.4230    0.0000 H   0  0  0  0  0  0  0  0  0  0  0  0
    3.7320   -1.8170    0.0000 H   0  0  0  0  0  0  0  0  0  0  0  0
  1 13  1  0  0  0  0
  2 14  1  0  0  0  0
  3  8  1  0  0  0  0
  3  9  1  0  0  0  0
  3 20  1  0  0  0  0
  4  8  2  0  0  0  0
  4 10  1  0  0  0  0
  5  6  1  0  0  0  0
  5  7  1  0  0  0  0
  5  8  1  0  0  0  0
  5 15  1  0  0  0  0
  6  7  1  0  0  0  0
  6 16  1  0  0  0  0
  6 17  1  0  0  0  0
  7 18  1  0  0  0  0
  7 19  1  0  0  0  0
  9 10  1  0  0  0  0
  9 11  2  0  0  0  0
 10 12  2  0  0  0  0
 11 13  1  0  0  0  0
 11 21  1  0  0  0  0
 12 14  1  0  0  0  0
 12 22  1  0  0  0  0
 13 14  2  0  0  0  0
M  END
> <PUBCHEM_COMPOUND_CID>
39158426

> <PUBCHEM_COMPOUND_CANONICALIZED>
1

> <PUBCHEM_CACTVS_COMPLEXITY>
232

> <PUBCHEM_CACTVS_HBOND_ACCEPTOR>
1

> <PUBCHEM_CACTVS_HBOND_DONOR>
1

> <PUBCHEM_CACTVS_ROTATABLE_BOND>
1

> <PUBCHEM_CACTVS_SUBSKEYS>
AAADccBzAAAGAAAAAAAAAAAAGAAAAWAAAAAwAAAAAAAAAFgB8AAAHAIQAAAADQqBFyAx0LbJkACgASZiZACCgC2hF6ABm2AwdpiIaKLBmpGUIAhokALIyCcQAAAAAABAAAIAACQAAIAABAAASAAAAAAAAA==

> <PUBCHEM_IUPAC_OPENEYE_NAME>
5,6-dichloro-2-cyclopropyl-1H-benzimidazole

> <PUBCHEM_IUPAC_CAS_NAME>
5,6-dichloro-2-cyclopropyl-1H-benzimidazole

> <PUBCHEM_IUPAC_NAME>
5,6-dichloro-2-cyclopropyl-1H-benzimidazole

> <PUBCHEM_IUPAC_SYSTEMATIC_NAME>
5,6-bis(chloranyl)-2-cyclopropyl-1H-benzimidazole

> <PUBCHEM_IUPAC_TRADITIONAL_NAME>
5,6-dichloro-2-cyclopropyl-1H-benzimidazole

> <PUBCHEM_IUPAC_INCHI>
InChI=1S/C10H8Cl2N2/c11-6-3-8-9(4-7(6)12)14-10(13-8)5-1-2-5/h3-5H,1-2H2,(H,13,14)

> <PUBCHEM_IUPAC_INCHIKEY>
LHUUWTZLUNLJFG-UHFFFAOYSA-N

> <PUBCHEM_XLOGP3>
3.6

> <PUBCHEM_EXACT_MASS>
226.006454

> <PUBCHEM_MOLECULAR_FORMULA>
C10H8Cl2N2

> <PUBCHEM_MOLECULAR_WEIGHT>
227.08992

> <PUBCHEM_OPENEYE_CAN_SMILES>
C1CC1C2=NC3=CC(=C(C=C3N2)Cl)Cl

> <PUBCHEM_OPENEYE_ISO_SMILES>
C1CC1C2=NC3=CC(=C(C=C3N2)Cl)Cl

> <PUBCHEM_CACTVS_TPSA>
28.7

> <PUBCHEM_MONOISOTOPIC_WEIGHT>
226.006454

> <PUBCHEM_TOTAL_CHARGE>
0

> <PUBCHEM_HEAVY_ATOM_COUNT>
14

> <PUBCHEM_ATOM_DEF_STEREO_COUNT>
0

> <PUBCHEM_ATOM_UDEF_STEREO_COUNT>
0

> <PUBCHEM_BOND_DEF_STEREO_COUNT>
0

> <PUBCHEM_BOND_UDEF_STEREO_COUNT>
0

> <PUBCHEM_ISOTOPIC_ATOM_COUNT>
0

> <PUBCHEM_COMPONENT_COUNT>
1

> <PUBCHEM_CACTVS_TAUTO_COUNT>
1

> <PUBCHEM_COORDINATE_TYPE>
1
5
255

> <PUBCHEM_BONDANNOTATIONS>
10  12  8
11  13  8
12  14  8
13  14  8
3  8  8
3  9  8
4  10  8
4  8  8
9  10  8
9  11  8

$$$$
39158427
  -OEChem-06111304242D

 27 28  0     0  0  0  0  0  0999 V2000
    2.0000    1.1690    0.0000 Cl  0  0  0  0  0  0  0  0  0  0  0  0
    2.0000   -0.8310    0.0000 Cl  0  0  0  0  0  0  0  0  0  0  0  0
    5.5443    0.9737    0.0000 N   0  0  0  0  0  0  0  0  0  0  0  0
    5.5443   -0.6357    0.0000 N   0  0  0  0  0  0  0  0  0  0  0  0
    7.6279   -0.6970    0.0000 C   0  0  0  0  0  0  0  0  0  0  0  0
    7.1279    0.1690    0.0000 C   0  0  0  0  0  0  0  0  0  0  0  0
    6.1279    0.1690    0.0000 C   0  0  0  0  0  0  0  0  0  0  0  0
    8.6279   -0.6970    0.0000 C   0  0  0  0  0  0  0  0  0  0  0  0
    7.1279   -1.5630    0.0000 C   0  0  0  0  0  0  0  0  0  0  0  0
    4.5981    0.6690    0.0000 C   0  0  0  0  0  0  0  0  0  0  0  0
    4.5981   -0.3310    0.0000 C   0  0  0  0  0  0  0  0  0  0  0  0
    3.7320    1.1690    0.0000 C   0  0  0  0  0  0  0  0  0  0  0  0
    3.7320   -0.8310    0.0000 C   0  0  0  0  0  0  0  0  0  0  0  0
    2.8660    0.6690    0.0000 C   0  0  0  0  0  0  0  0  0  0  0  0
    2.8660   -0.3310    0.0000 C   0  0  0  0  0  0  0  0  0  0  0  0
    7.0079   -0.6970    0.0000 H   0  0  0  0  0  0  0  0  0  0  0  0
    7.7105    0.3810    0.0000 H   0  0  0  0  0  0  0  0  0  0  0  0
    7.0202    0.7796    0.0000 H   0  0  0  0  0  0  0  0  0  0  0  0
    6.5910   -1.2530    0.0000 H   0  0  0  0  0  0  0  0  0  0  0  0
    6.8179   -2.1000    0.0000 H   0  0  0  0  0  0  0  0  0  0  0  0
    8.6279   -1.3170    0.0000 H   0  0  0  0  0  0  0  0  0  0  0  0
    9.2479   -0.6970    0.0000 H   0  0  0  0  0  0  0  0  0  0  0  0
    8.6279   -0.0770    0.0000 H   0  0  0  0  0  0  0  0  0  0  0  0
    7.6648   -1.8730    0.0000 H   0  0  0  0  0  0  0  0  0  0  0  0
    5.7369    1.5630    0.0000 H   0  0  0  0  0  0  0  0  0  0  0  0
    3.7320    1.7890    0.0000 H   0  0  0  0  0  0  0  0  0  0  0  0
    3.7320   -1.4510    0.0000 H   0  0  0  0  0  0  0  0  0  0  0  0
  1 14  1  0  0  0  0
  2 15  1  0  0  0  0
  3  7  1  0  0  0  0
  3 10  1  0  0  0  0
  3 25  1  0  0  0  0
  4  7  2  0  0  0  0
  4 11  1  0  0  0  0
  5  6  1  0  0  0  0
  5  8  1  0  0  0  0
  5  9  1  0  0  0  0
  5 16  1  0  0  0  0
  6  7  1  0  0  0  0
  6 17  1  0  0  0  0
  6 18  1  0  0  0  0
  8 21  1  0  0  0  0
  8 22  1  0  0  0  0
  8 23  1  0  0  0  0
  9 19  1  0  0  0  0
  9 20  1  0  0  0  0
  9 24  1  0  0  0  0
 10 11  1  0  0  0  0
 10 12  2  0  0  0  0
 11 13  2  0  0  0  0
 12 14  1  0  0  0  0
 12 26  1  0  0  0  0
 13 15  1  0  0  0  0
 13 27  1  0  0  0  0
 14 15  2  0  0  0  0
M  END
> <PUBCHEM_COMPOUND_CID>
39158427

> <PUBCHEM_COMPOUND_CANONICALIZED>
1

> <PUBCHEM_CACTVS_COMPLEXITY>
223

> <PUBCHEM_CACTVS_HBOND_ACCEPTOR>
1

> <PUBCHEM_CACTVS_HBOND_DONOR>
1

> <PUBCHEM_CACTVS_ROTATABLE_BOND>
2

> <PUBCHEM_CACTVS_SUBSKEYS>
AAADccBzAAAGAAAAAAAAAAAAAAAAAWAAAAAwAAAAAAAAAFgB8AAAHAIQAAAADQqBFyAz0LbJkACgASZiZACCgC2hF6ABm2AwdpiIaKLBmpGUIAhokALIyCcQAAAIAABAAAIAACQAAIAABAAASAAAAAAAAA==

> <PUBCHEM_IUPAC_OPENEYE_NAME>
5,6-dichloro-2-isobutyl-1H-benzimidazole

> <PUBCHEM_IUPAC_CAS_NAME>
5,6-dichloro-2-(2-methylpropyl)-1H-benzimidazole

> <PUBCHEM_IUPAC_NAME>
5,6-dichloro-2-(2-methylpropyl)-1H-benzimidazole

> <PUBCHEM_IUPAC_SYSTEMATIC_NAME>
5,6-bis(chloranyl)-2-(2-methylpropyl)-1H-benzimidazole

> <PUBCHEM_IUPAC_TRADITIONAL_NAME>
5,6-dichloro-2-isobutyl-1H-benzimidazole

> <PUBCHEM_IUPAC_INCHI>
InChI=1S/C11H12Cl2N2/c1-6(2)3-11-14-9-4-7(12)8(13)5-10(9)15-11/h4-6H,3H2,1-2H3,(H,14,15)

> <PUBCHEM_IUPAC_INCHIKEY>
SMMZGKKLOBWIBI-UHFFFAOYSA-N

> <PUBCHEM_XLOGP3>
4.7

> <PUBCHEM_EXACT_MASS>
242.037754

> <PUBCHEM_MOLECULAR_FORMULA>
C11H12Cl2N2

> <PUBCHEM_MOLECULAR_WEIGHT>
243.13238

> <PUBCHEM_OPENEYE_CAN_SMILES>
CC(C)CC1=NC2=CC(=C(C=C2N1)Cl)Cl

> <PUBCHEM_OPENEYE_ISO_SMILES>
CC(C)CC1=NC2=CC(=C(C=C2N1)Cl)Cl

> <PUBCHEM_CACTVS_TPSA>
28.7

> <PUBCHEM_MONOISOTOPIC_WEIGHT>
242.037754

> <PUBCHEM_TOTAL_CHARGE>
0

> <PUBCHEM_HEAVY_ATOM_COUNT>
15

> <PUBCHEM_ATOM_DEF_STEREO_COUNT>
0

> <PUBCHEM_ATOM_UDEF_STEREO_COUNT>
0

> <PUBCHEM_BOND_DEF_STEREO_COUNT>
0

> <PUBCHEM_BOND_UDEF_STEREO_COUNT>
0

> <PUBCHEM_ISOTOPIC_ATOM_COUNT>
0

> <PUBCHEM_COMPONENT_COUNT>
1

> <PUBCHEM_CACTVS_TAUTO_COUNT>
2

> <PUBCHEM_COORDINATE_TYPE>
1
5
255

> <PUBCHEM_BONDANNOTATIONS>
10  11  8
10  12  8
11  13  8
12  14  8
13  15  8
14  15  8
3  10  8
3  7  8
4  11  8
4  7  8

$$$$
39158442
  -OEChem-06111304242D

 28 30  0     0  0  0  0  0  0999 V2000
    2.0000    1.6020    0.0000 Cl  0  0  0  0  0  0  0  0  0  0  0  0
    2.0000   -0.3980    0.0000 Cl  0  0  0  0  0  0  0  0  0  0  0  0
    5.5443    1.4067    0.0000 N   0  0  0  0  0  0  0  0  0  0  0  0
    5.5443   -0.2027    0.0000 N   0  0  0  0  0  0  0  0  0  0  0  0
    6.1279    0.6020    0.0000 C   0  0  0  0  0  0  0  0  0  0  0  0
    7.1279    0.6020    0.0000 C   0  0  0  0  0  0  0  0  0  0  0  0
    4.5981    1.1020    0.0000 C   0  0  0  0  0  0  0  0  0  0  0  0
    4.5981    0.1020    0.0000 C   0  0  0  0  0  0  0  0  0  0  0  0
    7.6279   -0.2640    0.0000 C   0  0  0  0  0  0  0  0  0  0  0  0
    3.7320    1.6020    0.0000 C   0  0  0  0  0  0  0  0  0  0  0  0
    3.7320   -0.3980    0.0000 C   0  0  0  0  0  0  0  0  0  0  0  0
    8.6279   -0.2640    0.0000 C   0  0  0  0  0  0  0  0  0  0  0  0
    7.1279   -1.1300    0.0000 C   0  0  0  0  0  0  0  0  0  0  0  0
    2.8660    1.1020    0.0000 C   0  0  0  0  0  0  0  0  0  0  0  0
    2.8660    0.1020    0.0000 C   0  0  0  0  0  0  0  0  0  0  0  0
    9.1279   -1.1300    0.0000 C   0  0  0  0  0  0  0  0  0  0  0  0
    7.6279   -1.9961    0.0000 C   0  0  0  0  0  0  0  0  0  0  0  0
    8.6279   -1.9961    0.0000 C   0  0  0  0  0  0  0  0  0  0  0  0
    7.7105    0.8141    0.0000 H   0  0  0  0  0  0  0  0  0  0  0  0
    7.0202    1.2126    0.0000 H   0  0  0  0  0  0  0  0  0  0  0  0
    5.7369    1.9961    0.0000 H   0  0  0  0  0  0  0  0  0  0  0  0
    3.7320    2.2220    0.0000 H   0  0  0  0  0  0  0  0  0  0  0  0
    3.7320   -1.0180    0.0000 H   0  0  0  0  0  0  0  0  0  0  0  0
    8.9379    0.2729    0.0000 H   0  0  0  0  0  0  0  0  0  0  0  0
    6.5079   -1.1300    0.0000 H   0  0  0  0  0  0  0  0  0  0  0  0
    9.7479   -1.1300    0.0000 H   0  0  0  0  0  0  0  0  0  0  0  0
    7.3179   -2.5330    0.0000 H   0  0  0  0  0  0  0  0  0  0  0  0
    8.9379   -2.5330    0.0000 H   0  0  0  0  0  0  0  0  0  0  0  0
  1 14  1  0  0  0  0
  2 15  1  0  0  0  0
  3  5  1  0  0  0  0
  3  7  1  0  0  0  0
  3 21  1  0  0  0  0
  4  5  2  0  0  0  0
  4  8  1  0  0  0  0
  5  6  1  0  0  0  0
  6  9  1  0  0  0  0
  6 19  1  0  0  0  0
  6 20  1  0  0  0  0
  7  8  1  0  0  0  0
  7 10  2  0  0  0  0
  8 11  2  0  0  0  0
  9 12  2  0  0  0  0
  9 13  1  0  0  0  0
 10 14  1  0  0  0  0
 10 22  1  0  0  0  0
 11 15  1  0  0  0  0
 11 23  1  0  0  0  0
 12 16  1  0  0  0  0
 12 24  1  0  0  0  0
 13 17  2  0  0  0  0
 13 25  1  0  0  0  0
 14 15  2  0  0  0  0
 16 18  2  0  0  0  0
 16 26  1  0  0  0  0
 17 18  1  0  0  0  0
 17 27  1  0  0  0  0
 18 28  1  0  0  0  0
M  END
> <PUBCHEM_COMPOUND_CID>
39158442

> <PUBCHEM_COMPOUND_CANONICALIZED>
1

> <PUBCHEM_CACTVS_COMPLEXITY>
281

> <PUBCHEM_CACTVS_HBOND_ACCEPTOR>
1

> <PUBCHEM_CACTVS_HBOND_DONOR>
1

> <PUBCHEM_CACTVS_ROTATABLE_BOND>
2

> <PUBCHEM_CACTVS_SUBSKEYS>
AAADccBzAAAGAAAAAAAAAAAAAAAAAWAAAAAwYAAAAAAAAFgB9AAAHAIQAAAADAqBHyAx0LbJkACgAyZiZACCgC2hF6AJm2AwdpiIaKLBm5GUIAhokALIyCcQgIAOAABAAAIAACQAAIAABAAASAAAAAAAAA==

> <PUBCHEM_IUPAC_OPENEYE_NAME>
2-benzyl-5,6-dichloro-1H-benzimidazole

> <PUBCHEM_IUPAC_CAS_NAME>
5,6-dichloro-2-(phenylmethyl)-1H-benzimidazole

> <PUBCHEM_IUPAC_NAME>
2-benzyl-5,6-dichloro-1H-benzimidazole

> <PUBCHEM_IUPAC_SYSTEMATIC_NAME>
5,6-bis(chloranyl)-2-(phenylmethyl)-1H-benzimidazole

> <PUBCHEM_IUPAC_TRADITIONAL_NAME>
2-benzyl-5,6-dichloro-1H-benzimidazole

> <PUBCHEM_IUPAC_INCHI>
InChI=1S/C14H10Cl2N2/c15-10-7-12-13(8-11(10)16)18-14(17-12)6-9-4-2-1-3-5-9/h1-5,7-8H,6H2,(H,17,18)

> <PUBCHEM_IUPAC_INCHIKEY>
QDHPKBOOEJUPNL-UHFFFAOYSA-N

> <PUBCHEM_XLOGP3>
5

> <PUBCHEM_EXACT_MASS>
276.022104

> <PUBCHEM_MOLECULAR_FORMULA>
C14H10Cl2N2

> <PUBCHEM_MOLECULAR_WEIGHT>
277.1486

> <PUBCHEM_OPENEYE_CAN_SMILES>
C1=CC=C(C=C1)CC2=NC3=CC(=C(C=C3N2)Cl)Cl

> <PUBCHEM_OPENEYE_ISO_SMILES>
C1=CC=C(C=C1)CC2=NC3=CC(=C(C=C3N2)Cl)Cl

> <PUBCHEM_CACTVS_TPSA>
28.7

> <PUBCHEM_MONOISOTOPIC_WEIGHT>
276.022104

> <PUBCHEM_TOTAL_CHARGE>
0

> <PUBCHEM_HEAVY_ATOM_COUNT>
18

> <PUBCHEM_ATOM_DEF_STEREO_COUNT>
0

> <PUBCHEM_ATOM_UDEF_STEREO_COUNT>
0

> <PUBCHEM_BOND_DEF_STEREO_COUNT>
0

> <PUBCHEM_BOND_UDEF_STEREO_COUNT>
0

> <PUBCHEM_ISOTOPIC_ATOM_COUNT>
0

> <PUBCHEM_COMPONENT_COUNT>
1

> <PUBCHEM_CACTVS_TAUTO_COUNT>
1

> <PUBCHEM_COORDINATE_TYPE>
1
5
255

> <PUBCHEM_BONDANNOTATIONS>
10  14  8
11  15  8
12  16  8
13  17  8
14  15  8
16  18  8
17  18  8
3  5  8
3  7  8
4  5  8
4  8  8
7  10  8
7  8  8
8  11  8
9  12  8
9  13  8

$$$$
39161515
  -OEChem-06111304242D

 45 47  0     0  0  0  0  0  0999 V2000
    5.5000    0.2500    0.0000 N   0  3  0  0  0  0  0  0  0  0  0  0
    2.0359   -3.7500    0.0000 N   0  0  0  0  0  0  0  0  0  0  0  0
    4.6340   -0.2500    0.0000 C   0  0  0  0  0  0  0  0  0  0  0  0
    6.3660    0.7500    0.0000 C   0  0  0  0  0  0  0  0  0  0  0  0
    5.0000    1.1160    0.0000 C   0  0  0  0  0  0  0  0  0  0  0  0
    4.6340   -1.2500    0.0000 C   0  0  0  0  0  0  0  0  0  0  0  0
    4.0000    1.1160    0.0000 C   0  0  0  0  0  0  0  0  0  0  0  0
    6.3660    1.7500    0.0000 C   0  0  0  0  0  0  0  0  0  0  0  0
    3.7680   -1.7500    0.0000 C   0  0  0  0  0  0  0  0  0  0  0  0
    5.5000   -1.7500    0.0000 C   0  0  0  0  0  0  0  0  0  0  0  0
    3.5000    1.9820    0.0000 C   0  0  0  0  0  0  0  0  0  0  0  0
    7.2320    2.2500    0.0000 C   0  0  0  0  0  0  0  0  0  0  0  0
    3.5000    0.2500    0.0000 C   0  0  0  0  0  0  0  0  0  0  0  0
    5.5000    2.2500    0.0000 C   0  0  0  0  0  0  0  0  0  0  0  0
    3.7680   -2.7500    0.0000 C   0  0  0  0  0  0  0  0  0  0  0  0
    5.5000   -2.7500    0.0000 C   0  0  0  0  0  0  0  0  0  0  0  0
    7.2320    3.2500    0.0000 C   0  0  0  0  0  0  0  0  0  0  0  0
    2.5000    1.9820    0.0000 C   0  0  0  0  0  0  0  0  0  0  0  0
    5.5000    3.2500    0.0000 C   0  0  0  0  0  0  0  0  0  0  0  0
    2.5000    0.2500    0.0000 C   0  0  0  0  0  0  0  0  0  0  0  0
    4.6340   -3.2500    0.0000 C   0  0  0  0  0  0  0  0  0  0  0  0
    6.3660    3.7500    0.0000 C   0  0  0  0  0  0  0  0  0  0  0  0
    2.0000    1.1160    0.0000 C   0  0  0  0  0  0  0  0  0  0  0  0
    2.9019   -3.2500    0.0000 C   0  0  0  0  0  0  0  0  0  0  0  0
    5.8100   -0.2869    0.0000 H   0  0  0  0  0  0  0  0  0  0  0  0
    4.4219    0.3326    0.0000 H   0  0  0  0  0  0  0  0  0  0  0  0
    4.0234   -0.3577    0.0000 H   0  0  0  0  0  0  0  0  0  0  0  0
    6.5781    0.1674    0.0000 H   0  0  0  0  0  0  0  0  0  0  0  0
    6.9766    0.8577    0.0000 H   0  0  0  0  0  0  0  0  0  0  0  0
    5.5826    1.3281    0.0000 H   0  0  0  0  0  0  0  0  0  0  0  0
    4.8923    1.7266    0.0000 H   0  0  0  0  0  0  0  0  0  0  0  0
    3.2310   -1.4400    0.0000 H   0  0  0  0  0  0  0  0  0  0  0  0
    6.0369   -1.4400    0.0000 H   0  0  0  0  0  0  0  0  0  0  0  0
    7.7690    1.9400    0.0000 H   0  0  0  0  0  0  0  0  0  0  0  0
    3.8100    2.5190    0.0000 H   0  0  0  0  0  0  0  0  0  0  0  0
    4.9631    1.9400    0.0000 H   0  0  0  0  0  0  0  0  0  0  0  0
    3.8100   -0.2869    0.0000 H   0  0  0  0  0  0  0  0  0  0  0  0
    6.0369   -3.0600    0.0000 H   0  0  0  0  0  0  0  0  0  0  0  0
    7.7690    3.5600    0.0000 H   0  0  0  0  0  0  0  0  0  0  0  0
    2.1900    2.5190    0.0000 H   0  0  0  0  0  0  0  0  0  0  0  0
    4.9631    3.5600    0.0000 H   0  0  0  0  0  0  0  0  0  0  0  0
    2.1900   -0.2869    0.0000 H   0  0  0  0  0  0  0  0  0  0  0  0
    4.6340   -3.8700    0.0000 H   0  0  0  0  0  0  0  0  0  0  0  0
    1.3800    1.1160    0.0000 H   0  0  0  0  0  0  0  0  0  0  0  0
    6.3660    4.3700    0.0000 H   0  0  0  0  0  0  0  0  0  0  0  0
  1  3  1  0  0  0  0
  1  4  1  0  0  0  0
  1  5  1  0  0  0  0
  1 25  1  0  0  0  0
  2 24  3  0  0  0  0
  3  6  1  0  0  0  0
  3 26  1  0  0  0  0
  3 27  1  0  0  0  0
  4  8  1  0  0  0  0
  4 28  1  0  0  0  0
  4 29  1  0  0  0  0
  5  7  1  0  0  0  0
  5 30  1  0  0  0  0
  5 31  1  0  0  0  0
  6  9  2  0  0  0  0
  6 10  1  0  0  0  0
  7 11  2  0  0  0  0
  7 13  1  0  0  0  0
  8 12  2  0  0  0  0
  8 14  1  0  0  0  0
  9 15  1  0  0  0  0
  9 32  1  0  0  0  0
 10 16  2  0  0  0  0
 10 33  1  0  0  0  0
 11 18  1  0  0  0  0
 11 35  1  0  0  0  0
 12 17  1  0  0  0  0
 12 34  1  0  0  0  0
 13 20  2  0  0  0  0
 13 37  1  0  0  0  0
 14 19  2  0  0  0  0
 14 36  1  0  0  0  0
 15 21  2  0  0  0  0
 15 24  1  0  0  0  0
 16 21  1  0  0  0  0
 16 38  1  0  0  0  0
 17 22  2  0  0  0  0
 17 39  1  0  0  0  0
 18 23  2  0  0  0  0
 18 40  1  0  0  0  0
 19 22  1  0  0  0  0
 19 41  1  0  0  0  0
 20 23  1  0  0  0  0
 20 42  1  0  0  0  0
 21 43  1  0  0  0  0
 22 45  1  0  0  0  0
 23 44  1  0  0  0  0
M  CHG  1   1   1
M  END
> <PUBCHEM_COMPOUND_CID>
39161515

> <PUBCHEM_COMPOUND_CANONICALIZED>
1

> <PUBCHEM_CACTVS_COMPLEXITY>
377

> <PUBCHEM_CACTVS_HBOND_ACCEPTOR>
1

> <PUBCHEM_CACTVS_HBOND_DONOR>
1

> <PUBCHEM_CACTVS_ROTATABLE_BOND>
6

> <PUBCHEM_CACTVS_SUBSKEYS>
AAADceB7AAAAAAAAAAAAAAAAAAAAAAAAAAAwYMAAAAAAAAABUAAAHAAQAAAADADBGAQwAIPAAACQBiBCAACiAAAgAAAIiIAIBIgIoCKAkRGEIAhggACIiA8QgEAOAAACAAAAAAAAAAQAAAAAAAAAAAAAAA==

> <PUBCHEM_IUPAC_OPENEYE_NAME>
dibenzyl-[(3-cyanophenyl)methyl]ammonium

> <PUBCHEM_IUPAC_CAS_NAME>
(3-cyanophenyl)methyl-bis(phenylmethyl)ammonium

> <PUBCHEM_IUPAC_NAME>
dibenzyl-[(3-cyanophenyl)methyl]azanium

> <PUBCHEM_IUPAC_SYSTEMATIC_NAME>
(3-cyanophenyl)methyl-bis(phenylmethyl)azanium

> <PUBCHEM_IUPAC_TRADITIONAL_NAME>
dibenzyl-(3-cyanobenzyl)ammonium

> <PUBCHEM_IUPAC_INCHI>
InChI=1S/C22H20N2/c23-15-21-12-7-13-22(14-21)18-24(16-19-8-3-1-4-9-19)17-20-10-5-2-6-11-20/h1-14H,16-18H2/p+1

> <PUBCHEM_IUPAC_INCHIKEY>
QNHRSUVMBZCGFE-UHFFFAOYSA-O

> <PUBCHEM_XLOGP3>
4.5

> <PUBCHEM_EXACT_MASS>
313.170474

> <PUBCHEM_MOLECULAR_FORMULA>
C22H21N2+

> <PUBCHEM_MOLECULAR_WEIGHT>
313.41554

> <PUBCHEM_OPENEYE_CAN_SMILES>
C1=CC=C(C=C1)C[NH+](CC2=CC=CC=C2)CC3=CC=CC(=C3)C#N

> <PUBCHEM_OPENEYE_ISO_SMILES>
C1=CC=C(C=C1)C[NH+](CC2=CC=CC=C2)CC3=CC=CC(=C3)C#N

> <PUBCHEM_CACTVS_TPSA>
28.2

> <PUBCHEM_MONOISOTOPIC_WEIGHT>
313.170474

> <PUBCHEM_TOTAL_CHARGE>
1

> <PUBCHEM_HEAVY_ATOM_COUNT>
24

> <PUBCHEM_ATOM_DEF_STEREO_COUNT>
0

> <PUBCHEM_ATOM_UDEF_STEREO_COUNT>
0

> <PUBCHEM_BOND_DEF_STEREO_COUNT>
0

> <PUBCHEM_BOND_UDEF_STEREO_COUNT>
0

> <PUBCHEM_ISOTOPIC_ATOM_COUNT>
0

> <PUBCHEM_COMPONENT_COUNT>
1

> <PUBCHEM_CACTVS_TAUTO_COUNT>
1

> <PUBCHEM_COORDINATE_TYPE>
1
5
255

> <PUBCHEM_BONDANNOTATIONS>
10  16  8
11  18  8
12  17  8
13  20  8
14  19  8
15  21  8
16  21  8
17  22  8
18  23  8
19  22  8
20  23  8
6  10  8
6  9  8
7  11  8
7  13  8
8  12  8
8  14  8
9  15  8

$$$$
39166857
  -OEChem-06111304242D

 33 35  0     0  0  0  0  0  0999 V2000
    7.6138   -0.4923    0.0000 Br  0  0  0  0  0  0  0  0  0  0  0  0
    8.8564    3.3098    0.0000 Br  0  0  0  0  0  0  0  0  0  0  0  0
    6.6353   -0.6985    0.0000 O   0  0  0  0  0  0  0  0  0  0  0  0
    4.6783   -2.7204    0.0000 N   0  0  0  0  0  0  0  0  0  0  0  0
    6.2781    0.9963    0.0000 N   0  0  0  0  0  0  0  0  0  0  0  0
    4.6783   -1.1110    0.0000 C   0  0  0  0  0  0  0  0  0  0  0  0
    3.7321   -1.4157    0.0000 C   0  0  0  0  0  0  0  0  0  0  0  0
    3.7321   -2.4157    0.0000 C   0  0  0  0  0  0  0  0  0  0  0  0
    4.9889   -0.1605    0.0000 C   0  0  0  0  0  0  0  0  0  0  0  0
    5.2619   -1.9157    0.0000 C   0  0  0  0  0  0  0  0  0  0  0  0
    2.8660   -0.9157    0.0000 C   0  0  0  0  0  0  0  0  0  0  0  0
    2.8660   -2.9157    0.0000 C   0  0  0  0  0  0  0  0  0  0  0  0
    5.9674    0.0458    0.0000 C   0  0  0  0  0  0  0  0  0  0  0  0
    2.0000   -1.4157    0.0000 C   0  0  0  0  0  0  0  0  0  0  0  0
    2.0000   -2.4157    0.0000 C   0  0  0  0  0  0  0  0  0  0  0  0
    7.2566    1.2025    0.0000 C   0  0  0  0  0  0  0  0  0  0  0  0
    7.9245    0.4582    0.0000 C   0  0  0  0  0  0  0  0  0  0  0  0
    7.5673    2.1530    0.0000 C   0  0  0  0  0  0  0  0  0  0  0  0
    8.5458    2.3592    0.0000 C   0  0  0  0  0  0  0  0  0  0  0  0
    8.9030    0.6644    0.0000 C   0  0  0  0  0  0  0  0  0  0  0  0
    9.2136    1.6149    0.0000 C   0  0  0  0  0  0  0  0  0  0  0  0
    4.9684    0.4592    0.0000 H   0  0  0  0  0  0  0  0  0  0  0  0
    4.3751   -0.0731    0.0000 H   0  0  0  0  0  0  0  0  0  0  0  0
    5.8819   -1.9157    0.0000 H   0  0  0  0  0  0  0  0  0  0  0  0
    4.8709   -3.3098    0.0000 H   0  0  0  0  0  0  0  0  0  0  0  0
    2.8660   -0.2957    0.0000 H   0  0  0  0  0  0  0  0  0  0  0  0
    2.8660   -3.5357    0.0000 H   0  0  0  0  0  0  0  0  0  0  0  0
    1.4631   -1.1057    0.0000 H   0  0  0  0  0  0  0  0  0  0  0  0
    1.4631   -2.7257    0.0000 H   0  0  0  0  0  0  0  0  0  0  0  0
    5.8640    1.4578    0.0000 H   0  0  0  0  0  0  0  0  0  0  0  0
    7.1532    2.6145    0.0000 H   0  0  0  0  0  0  0  0  0  0  0  0
    9.3170    0.2030    0.0000 H   0  0  0  0  0  0  0  0  0  0  0  0
    9.8203    1.7428    0.0000 H   0  0  0  0  0  0  0  0  0  0  0  0
  1 17  1  0  0  0  0
  2 19  1  0  0  0  0
  3 13  2  0  0  0  0
  4  8  1  0  0  0  0
  4 10  1  0  0  0  0
  4 25  1  0  0  0  0
  5 13  1  0  0  0  0
  5 16  1  0  0  0  0
  5 30  1  0  0  0  0
  6  7  1  0  0  0  0
  6  9  1  0  0  0  0
  6 10  2  0  0  0  0
  7  8  1  0  0  0  0
  7 11  2  0  0  0  0
  8 12  2  0  0  0  0
  9 13  1  0  0  0  0
  9 22  1  0  0  0  0
  9 23  1  0  0  0  0
 10 24  1  0  0  0  0
 11 14  1  0  0  0  0
 11 26  1  0  0  0  0
 12 15  1  0  0  0  0
 12 27  1  0  0  0  0
 14 15  2  0  0  0  0
 14 28  1  0  0  0  0
 15 29  1  0  0  0  0
 16 17  2  0  0  0  0
 16 18  1  0  0  0  0
 17 20  1  0  0  0  0
 18 19  2  0  0  0  0
 18 31  1  0  0  0  0
 19 21  1  0  0  0  0
 20 21  2  0  0  0  0
 20 32  1  0  0  0  0
 21 33  1  0  0  0  0
M  END
> <PUBCHEM_COMPOUND_CID>
39166857

> <PUBCHEM_COMPOUND_CANONICALIZED>
1

> <PUBCHEM_CACTVS_COMPLEXITY>
379

> <PUBCHEM_CACTVS_HBOND_ACCEPTOR>
1

> <PUBCHEM_CACTVS_HBOND_DONOR>
2

> <PUBCHEM_CACTVS_ROTATABLE_BOND>
3

> <PUBCHEM_CACTVS_SUBSKEYS>
AAADccB7IAAAGAAAAAAAAAAAAAAAAWAAAAAwYAAAAAAAAFgB9AAAHgBQAAABrAjBngQ8wPLJkACoAzV3VACCgCAxAiQI2aE4ZLgIIPLAlZGEIAhglADIyhccicCegAAEAAECAAgAAAgAAgQAEAAAAAAAAA==

> <PUBCHEM_IUPAC_OPENEYE_NAME>
N-(2,5-dibromophenyl)-2-(1H-indol-3-yl)acetamide

> <PUBCHEM_IUPAC_CAS_NAME>
N-(2,5-dibromophenyl)-2-(1H-indol-3-yl)acetamide

> <PUBCHEM_IUPAC_NAME>
N-(2,5-dibromophenyl)-2-(1H-indol-3-yl)acetamide

> <PUBCHEM_IUPAC_SYSTEMATIC_NAME>
N-[2,5-bis(bromanyl)phenyl]-2-(1H-indol-3-yl)ethanamide

> <PUBCHEM_IUPAC_TRADITIONAL_NAME>
N-(2,5-dibromophenyl)-2-(1H-indol-3-yl)acetamide

> <PUBCHEM_IUPAC_INCHI>
InChI=1S/C16H12Br2N2O/c17-11-5-6-13(18)15(8-11)20-16(21)7-10-9-19-14-4-2-1-3-12(10)14/h1-6,8-9,19H,7H2,(H,20,21)

> <PUBCHEM_IUPAC_INCHIKEY>
MYBLWZUOAXQIAN-UHFFFAOYSA-N

> <PUBCHEM_XLOGP3>
4.1

> <PUBCHEM_EXACT_MASS>
407.929591

> <PUBCHEM_MOLECULAR_FORMULA>
C16H12Br2N2O

> <PUBCHEM_MOLECULAR_WEIGHT>
408.08728

> <PUBCHEM_OPENEYE_CAN_SMILES>
C1=CC=C2C(=C1)C(=CN2)CC(=O)NC3=C(C=CC(=C3)Br)Br

> <PUBCHEM_OPENEYE_ISO_SMILES>
C1=CC=C2C(=C1)C(=CN2)CC(=O)NC3=C(C=CC(=C3)Br)Br

> <PUBCHEM_CACTVS_TPSA>
44.9

> <PUBCHEM_MONOISOTOPIC_WEIGHT>
405.931637

> <PUBCHEM_TOTAL_CHARGE>
0

> <PUBCHEM_HEAVY_ATOM_COUNT>
21

> <PUBCHEM_ATOM_DEF_STEREO_COUNT>
0

> <PUBCHEM_ATOM_UDEF_STEREO_COUNT>
0

> <PUBCHEM_BOND_DEF_STEREO_COUNT>
0

> <PUBCHEM_BOND_UDEF_STEREO_COUNT>
0

> <PUBCHEM_ISOTOPIC_ATOM_COUNT>
0

> <PUBCHEM_COMPONENT_COUNT>
1

> <PUBCHEM_CACTVS_TAUTO_COUNT>
2

> <PUBCHEM_COORDINATE_TYPE>
1
5
255

> <PUBCHEM_BONDANNOTATIONS>
11  14  8
12  15  8
14  15  8
16  17  8
16  18  8
17  20  8
18  19  8
19  21  8
20  21  8
4  10  8
4  8  8
6  10  8
6  7  8
7  11  8
7  8  8
8  12  8

$$$$
39166865
  -OEChem-06111304242D

 26 27  0     0  0  0  0  0  0999 V2000
    2.0000   -1.2500    0.0000 Br  0  0  0  0  0  0  0  0  0  0  0  0
    5.4641   -3.2500    0.0000 Br  0  0  0  0  0  0  0  0  0  0  0  0
    5.4641   -0.2500    0.0000 O   0  0  0  0  0  0  0  0  0  0  0  0
    3.7321   -0.2500    0.0000 N   0  0  0  0  0  0  0  0  0  0  0  0
    3.7321   -1.2500    0.0000 C   0  0  0  0  0  0  0  0  0  0  0  0
    4.5981    1.2500    0.0000 C   0  0  0  0  0  0  0  0  0  0  0  0
    4.5981    0.2500    0.0000 C   0  0  0  0  0  0  0  0  0  0  0  0
    2.8660   -1.7500    0.0000 C   0  0  0  0  0  0  0  0  0  0  0  0
    4.5981   -1.7500    0.0000 C   0  0  0  0  0  0  0  0  0  0  0  0
    5.4641    1.7500    0.0000 C   0  0  0  0  0  0  0  0  0  0  0  0
    3.7321    1.7500    0.0000 C   0  0  0  0  0  0  0  0  0  0  0  0
    4.5981   -2.7500    0.0000 C   0  0  0  0  0  0  0  0  0  0  0  0
    2.8660   -2.7500    0.0000 C   0  0  0  0  0  0  0  0  0  0  0  0
    3.7321   -3.2500    0.0000 C   0  0  0  0  0  0  0  0  0  0  0  0
    5.4641    2.7500    0.0000 C   0  0  0  0  0  0  0  0  0  0  0  0
    3.7321    2.7500    0.0000 C   0  0  0  0  0  0  0  0  0  0  0  0
    4.5981    3.2500    0.0000 C   0  0  0  0  0  0  0  0  0  0  0  0
    3.1951    0.0600    0.0000 H   0  0  0  0  0  0  0  0  0  0  0  0
    5.1350   -1.4400    0.0000 H   0  0  0  0  0  0  0  0  0  0  0  0
    6.0010    1.4400    0.0000 H   0  0  0  0  0  0  0  0  0  0  0  0
    3.1951    1.4400    0.0000 H   0  0  0  0  0  0  0  0  0  0  0  0
    2.3291   -3.0600    0.0000 H   0  0  0  0  0  0  0  0  0  0  0  0
    3.7321   -3.8700    0.0000 H   0  0  0  0  0  0  0  0  0  0  0  0
    6.0010    3.0600    0.0000 H   0  0  0  0  0  0  0  0  0  0  0  0
    3.1951    3.0600    0.0000 H   0  0  0  0  0  0  0  0  0  0  0  0
    4.5981    3.8700    0.0000 H   0  0  0  0  0  0  0  0  0  0  0  0
  1  8  1  0  0  0  0
  2 12  1  0  0  0  0
  3  7  2  0  0  0  0
  4  5  1  0  0  0  0
  4  7  1  0  0  0  0
  4 18  1  0  0  0  0
  5  8  2  0  0  0  0
  5  9  1  0  0  0  0
  6  7  1  0  0  0  0
  6 10  2  0  0  0  0
  6 11  1  0  0  0  0
  8 13  1  0  0  0  0
  9 12  2  0  0  0  0
  9 19  1  0  0  0  0
 10 15  1  0  0  0  0
 10 20  1  0  0  0  0
 11 16  2  0  0  0  0
 11 21  1  0  0  0  0
 12 14  1  0  0  0  0
 13 14  2  0  0  0  0
 13 22  1  0  0  0  0
 14 23  1  0  0  0  0
 15 17  2  0  0  0  0
 15 24  1  0  0  0  0
 16 17  1  0  0  0  0
 16 25  1  0  0  0  0
 17 26  1  0  0  0  0
M  END
> <PUBCHEM_COMPOUND_CID>
39166865

> <PUBCHEM_COMPOUND_CANONICALIZED>
1

> <PUBCHEM_CACTVS_COMPLEXITY>
266

> <PUBCHEM_CACTVS_HBOND_ACCEPTOR>
1

> <PUBCHEM_CACTVS_HBOND_DONOR>
1

> <PUBCHEM_CACTVS_ROTATABLE_BOND>
2

> <PUBCHEM_CACTVS_SUBSKEYS>
AAADccByIAAAGAAAAAAAAAAAAAAAAAAAAAAwYAAAAAAAAAABQAAAHgBQAAABrAiBmAAwwILAAACIAiVSUACCAAAlAgQIiAEAZOgIIDLAlZGEIQhglADIy5cYiACOAAAEAAEAAAgAAAgAAgAAEAAAAAAAAA==

> <PUBCHEM_IUPAC_OPENEYE_NAME>
N-(2,5-dibromophenyl)benzamide

> <PUBCHEM_IUPAC_CAS_NAME>
N-(2,5-dibromophenyl)benzamide

> <PUBCHEM_IUPAC_NAME>
N-(2,5-dibromophenyl)benzamide

> <PUBCHEM_IUPAC_SYSTEMATIC_NAME>
N-[2,5-bis(bromanyl)phenyl]benzamide

> <PUBCHEM_IUPAC_TRADITIONAL_NAME>
N-(2,5-dibromophenyl)benzamide

> <PUBCHEM_IUPAC_INCHI>
InChI=1S/C13H9Br2NO/c14-10-6-7-11(15)12(8-10)16-13(17)9-4-2-1-3-5-9/h1-8H,(H,16,17)

> <PUBCHEM_IUPAC_INCHIKEY>
FUQSHTAGAXBJSA-UHFFFAOYSA-N

> <PUBCHEM_XLOGP3>
4.5

> <PUBCHEM_EXACT_MASS>
354.903042

> <PUBCHEM_MOLECULAR_FORMULA>
C13H9Br2NO

> <PUBCHEM_MOLECULAR_WEIGHT>
355.02466

> <PUBCHEM_OPENEYE_CAN_SMILES>
C1=CC=C(C=C1)C(=O)NC2=C(C=CC(=C2)Br)Br

> <PUBCHEM_OPENEYE_ISO_SMILES>
C1=CC=C(C=C1)C(=O)NC2=C(C=CC(=C2)Br)Br

> <PUBCHEM_CACTVS_TPSA>
29.1

> <PUBCHEM_MONOISOTOPIC_WEIGHT>
352.905088

> <PUBCHEM_TOTAL_CHARGE>
0

> <PUBCHEM_HEAVY_ATOM_COUNT>
17

> <PUBCHEM_ATOM_DEF_STEREO_COUNT>
0

> <PUBCHEM_ATOM_UDEF_STEREO_COUNT>
0

> <PUBCHEM_BOND_DEF_STEREO_COUNT>
0

> <PUBCHEM_BOND_UDEF_STEREO_COUNT>
0

> <PUBCHEM_ISOTOPIC_ATOM_COUNT>
0

> <PUBCHEM_COMPONENT_COUNT>
1

> <PUBCHEM_CACTVS_TAUTO_COUNT>
2

> <PUBCHEM_COORDINATE_TYPE>
1
5
255

> <PUBCHEM_BONDANNOTATIONS>
10  15  8
11  16  8
12  14  8
13  14  8
15  17  8
16  17  8
5  8  8
5  9  8
6  10  8
6  11  8
8  13  8
9  12  8

$$$$
