35340195
  -OEChem-11301217462D

 39 41  0     1  0  0  0  0  0999 V2000
    3.1296    0.9268    0.0000 O   0  0  0  0  0  0  0  0  0  0  0  0
    2.9971   -0.8001    0.0000 N   0  0  0  0  0  0  0  0  0  0  0  0
    4.5590   -0.0514    0.0000 C   0  0  0  0  0  0  0  0  0  0  0  0
    5.9249    1.1515    0.0000 C   0  0  2  0  0  0  0  0  0  0  0  0
    7.6570    1.1515    0.0000 C   0  0  1  0  0  0  0  0  0  0  0  0
    6.7910   -0.3485    0.0000 C   0  0  0  0  0  0  0  0  0  0  0  0
    4.9458    0.8863    0.0000 C   0  0  0  0  0  0  0  0  0  0  0  0
    5.7607    1.4444    0.0000 C   0  0  0  0  0  0  0  0  0  0  0  0
    6.7910    1.6515    0.0000 C   0  0  0  0  0  0  0  0  0  0  0  0
    5.9249    0.1515    0.0000 C   0  0  0  0  0  0  0  0  0  0  0  0
    7.6570    0.1515    0.0000 C   0  0  0  0  0  0  0  0  0  0  0  0
    5.0661   -0.9299    0.0000 C   0  0  0  0  0  0  0  0  0  0  0  0
    6.0717   -1.0638    0.0000 C   0  0  0  0  0  0  0  0  0  0  0  0
    3.5619    0.0251    0.0000 C   0  0  0  0  0  0  0  0  0  0  0  0
    2.0000   -0.7236    0.0000 C   0  0  0  0  0  0  0  0  0  0  0  0
    3.4293   -1.7019    0.0000 C   0  0  0  0  0  0  0  0  0  0  0  0
    6.3164    1.9060    0.0000 H   0  0  0  0  0  0  0  0  0  0  0  0
    8.3931    1.5765    0.0000 H   0  0  0  0  0  0  0  0  0  0  0  0
    7.1677   -0.8409    0.0000 H   0  0  0  0  0  0  0  0  0  0  0  0
    4.9174    1.5056    0.0000 H   0  0  0  0  0  0  0  0  0  0  0  0
    4.3351    0.9928    0.0000 H   0  0  0  0  0  0  0  0  0  0  0  0
    5.9603    2.0314    0.0000 H   0  0  0  0  0  0  0  0  0  0  0  0
    5.2173    1.7429    0.0000 H   0  0  0  0  0  0  0  0  0  0  0  0
    7.1895    2.1265    0.0000 H   0  0  0  0  0  0  0  0  0  0  0  0
    6.3924    2.1265    0.0000 H   0  0  0  0  0  0  0  0  0  0  0  0
    5.3144    0.2592    0.0000 H   0  0  0  0  0  0  0  0  0  0  0  0
    5.7129   -0.4311    0.0000 H   0  0  0  0  0  0  0  0  0  0  0  0
    7.8690   -0.4311    0.0000 H   0  0  0  0  0  0  0  0  0  0  0  0
    8.2676    0.2592    0.0000 H   0  0  0  0  0  0  0  0  0  0  0  0
    4.4748   -1.1161    0.0000 H   0  0  0  0  0  0  0  0  0  0  0  0
    5.1196   -1.5476    0.0000 H   0  0  0  0  0  0  0  0  0  0  0  0
    5.8586   -1.6460    0.0000 H   0  0  0  0  0  0  0  0  0  0  0  0
    6.5938   -1.3981    0.0000 H   0  0  0  0  0  0  0  0  0  0  0  0
    2.0474   -0.1054    0.0000 H   0  0  0  0  0  0  0  0  0  0  0  0
    1.3818   -0.6762    0.0000 H   0  0  0  0  0  0  0  0  0  0  0  0
    1.9526   -1.3418    0.0000 H   0  0  0  0  0  0  0  0  0  0  0  0
    2.8702   -1.9699    0.0000 H   0  0  0  0  0  0  0  0  0  0  0  0
    3.6973   -2.2610    0.0000 H   0  0  0  0  0  0  0  0  0  0  0  0
    3.9884   -1.4339    0.0000 H   0  0  0  0  0  0  0  0  0  0  0  0
  1 14  2  0  0  0  0
  2 14  1  0  0  0  0
  2 15  1  0  0  0  0
  2 16  1  0  0  0  0
  3  7  1  0  0  0  0
  3  8  1  0  0  0  0
  3 12  1  0  0  0  0
  3 14  1  0  0  0  0
  4  7  1  0  0  0  0
  4  9  1  0  0  0  0
  4 10  1  0  0  0  0
  4 17  1  1  0  0  0
  5  8  1  0  0  0  0
  5  9  1  0  0  0  0
  5 11  1  0  0  0  0
  5 18  1  6  0  0  0
  6 10  1  0  0  0  0
  6 11  1  0  0  0  0
  6 13  1  0  0  0  0
  6 19  1  0  0  0  0
  7 20  1  0  0  0  0
  7 21  1  0  0  0  0
  8 22  1  0  0  0  0
  8 23  1  0  0  0  0
  9 24  1  0  0  0  0
  9 25  1  0  0  0  0
 10 26  1  0  0  0  0
 10 27  1  0  0  0  0
 11 28  1  0  0  0  0
 11 29  1  0  0  0  0
 12 13  1  0  0  0  0
 12 30  1  0  0  0  0
 12 31  1  0  0  0  0
 13 32  1  0  0  0  0
 13 33  1  0  0  0  0
 15 34  1  0  0  0  0
 15 35  1  0  0  0  0
 15 36  1  0  0  0  0
 16 37  1  0  0  0  0
 16 38  1  0  0  0  0
 16 39  1  0  0  0  0
M  END
> <PUBCHEM_COMPOUND_CID>
35340195

> <PUBCHEM_COMPOUND_CANONICALIZED>
1

> <PUBCHEM_CACTVS_COMPLEXITY>
296

> <PUBCHEM_CACTVS_HBOND_ACCEPTOR>
1

> <PUBCHEM_CACTVS_HBOND_DONOR>
0

> <PUBCHEM_CACTVS_ROTATABLE_BOND>
1

> <PUBCHEM_CACTVS_SUBSKEYS>
AAADceByIAAAAAAAAAAAAAAAAAAAAAAAAAAwYAAABgwAAAAAAAAAHgAAAAAADwCBgAQCAAMAAAAIAAEQEAAAAAAAAAAAAAEIAAAAABIAgAAEAAAAAgAAAAEYiMCPAAAAAAAAAAAAAAQAAAAAAAAAAAAAAA==

> <PUBCHEM_IUPAC_INCHI>
InChI=1S/C14H23NO/c1-15(2)13(16)14-4-3-10-5-11(8-14)7-12(6-10)9-14/h10-12H,3-9H2,1-2H3/t10?,11-,12+,14?

> <PUBCHEM_IUPAC_INCHIKEY>
PRXBSYPABVQDAW-OEIYDUSMSA-N

> <PUBCHEM_XLOGP3>
3.1

> <PUBCHEM_EXACT_MASS>
221.177964

> <PUBCHEM_MOLECULAR_FORMULA>
C14H23NO

> <PUBCHEM_MOLECULAR_WEIGHT>
221.33852

> <PUBCHEM_OPENEYE_CAN_SMILES>
CN(C)C(=O)C12CCC3CC(C1)CC(C3)C2

> <PUBCHEM_OPENEYE_ISO_SMILES>
CN(C)C(=O)C12CCC3C[C@H](C1)C[C@@H](C3)C2

> <PUBCHEM_CACTVS_TPSA>
20.3

> <PUBCHEM_MONOISOTOPIC_WEIGHT>
221.177964

> <PUBCHEM_TOTAL_CHARGE>
0

> <PUBCHEM_HEAVY_ATOM_COUNT>
16

> <PUBCHEM_ATOM_DEF_STEREO_COUNT>
2

> <PUBCHEM_ATOM_UDEF_STEREO_COUNT>
0

> <PUBCHEM_BOND_DEF_STEREO_COUNT>
0

> <PUBCHEM_BOND_UDEF_STEREO_COUNT>
0

> <PUBCHEM_ISOTOPIC_ATOM_COUNT>
0

> <PUBCHEM_COMPONENT_COUNT>
1

> <PUBCHEM_CACTVS_TAUTO_COUNT>
1

> <PUBCHEM_COORDINATE_TYPE>
1
5
255

> <PUBCHEM_BONDANNOTATIONS>
4  17  5
5  18  6

$$$$
35341373
  -OEChem-11301217462D

 23 23  0     1  0  0  0  0  0999 V2000
    2.0000    2.2320    0.0000 Cl  0  0  0  0  0  0  0  0  0  0  0  0
    2.0000    0.5000    0.0000 Cl  0  0  0  0  0  0  0  0  0  0  0  0
    4.0000   -2.2320    0.0000 O   0  0  0  0  0  0  0  0  0  0  0  0
    2.5000   -1.3660    0.0000 N   0  0  0  0  0  0  0  0  0  0  0  0
    4.8660    0.0000    0.0000 C   0  0  0  0  0  0  0  0  0  0  0  0
    4.0000   -0.5000    0.0000 C   0  0  2  0  0  0  0  0  0  0  0  0
    4.0000    0.5000    0.0000 C   0  0  2  0  0  0  0  0  0  0  0  0
    5.3660   -0.8660    0.0000 C   0  0  0  0  0  0  0  0  0  0  0  0
    5.3660    0.8660    0.0000 C   0  0  0  0  0  0  0  0  0  0  0  0
    3.5000   -1.3660    0.0000 C   0  0  0  0  0  0  0  0  0  0  0  0
    3.5000    1.3660    0.0000 C   0  0  0  0  0  0  0  0  0  0  0  0
    2.5000    1.3660    0.0000 C   0  0  0  0  0  0  0  0  0  0  0  0
    3.4011   -0.3395    0.0000 H   0  0  0  0  0  0  0  0  0  0  0  0
    3.4011    0.3395    0.0000 H   0  0  0  0  0  0  0  0  0  0  0  0
    4.8291   -1.1760    0.0000 H   0  0  0  0  0  0  0  0  0  0  0  0
    5.6760   -1.4030    0.0000 H   0  0  0  0  0  0  0  0  0  0  0  0
    5.9030   -0.5560    0.0000 H   0  0  0  0  0  0  0  0  0  0  0  0
    5.9030    0.5560    0.0000 H   0  0  0  0  0  0  0  0  0  0  0  0
    5.6760    1.4030    0.0000 H   0  0  0  0  0  0  0  0  0  0  0  0
    4.8291    1.1760    0.0000 H   0  0  0  0  0  0  0  0  0  0  0  0
    3.8100    1.9030    0.0000 H   0  0  0  0  0  0  0  0  0  0  0  0
    2.1900   -1.9030    0.0000 H   0  0  0  0  0  0  0  0  0  0  0  0
    2.1900   -0.8291    0.0000 H   0  0  0  0  0  0  0  0  0  0  0  0
  1 12  1  0  0  0  0
  2 12  1  0  0  0  0
  3 10  2  0  0  0  0
  4 10  1  0  0  0  0
  4 22  1  0  0  0  0
  4 23  1  0  0  0  0
  5  6  1  0  0  0  0
  5  7  1  0  0  0  0
  5  8  1  0  0  0  0
  5  9  1  0  0  0  0
  6  7  1  0  0  0  0
  6 10  1  1  0  0  0
  6 13  1  0  0  0  0
  7 11  1  6  0  0  0
  7 14  1  0  0  0  0
  8 15  1  0  0  0  0
  8 16  1  0  0  0  0
  8 17  1  0  0  0  0
  9 18  1  0  0  0  0
  9 19  1  0  0  0  0
  9 20  1  0  0  0  0
 11 12  2  0  0  0  0
 11 21  1  0  0  0  0
M  END
> <PUBCHEM_COMPOUND_CID>
35341373

> <PUBCHEM_COMPOUND_CANONICALIZED>
1

> <PUBCHEM_CACTVS_COMPLEXITY>
243

> <PUBCHEM_CACTVS_HBOND_ACCEPTOR>
1

> <PUBCHEM_CACTVS_HBOND_DONOR>
1

> <PUBCHEM_CACTVS_ROTATABLE_BOND>
2

> <PUBCHEM_CACTVS_SUBSKEYS>
AAADccByIAAGAAAAAAAAAAAAGAAAAAAAAAAAAAAAAAAAAAAAAAAAHgIQAAAADwKBgIACAABAAACIACFSEAAAAAAgAAAAAAEAAAgAABIAgAAAAAAAkAAAAAAYAAAPgAAAAAAAAAAAAAAAAAAAAAAAAAAAAA==

> <PUBCHEM_IUPAC_OPENEYE_NAME>
(1S,3R)-3-(2,2-dichlorovinyl)-2,2-dimethyl-cyclopropanecarboxamide

> <PUBCHEM_IUPAC_CAS_NAME>
(1S,3R)-3-(2,2-dichloroethenyl)-2,2-dimethyl-1-cyclopropanecarboxamide

> <PUBCHEM_IUPAC_NAME>
(1S,3R)-3-(2,2-dichloroethenyl)-2,2-dimethylcyclopropane-1-carboxamide

> <PUBCHEM_IUPAC_SYSTEMATIC_NAME>
(1S,3R)-3-[2,2-bis(chloranyl)ethenyl]-2,2-dimethyl-cyclopropane-1-carboxamide

> <PUBCHEM_IUPAC_TRADITIONAL_NAME>
(1S,3R)-3-(2,2-dichlorovinyl)-2,2-dimethyl-cyclopropanecarboxamide

> <PUBCHEM_IUPAC_INCHI>
InChI=1S/C8H11Cl2NO/c1-8(2)4(3-5(9)10)6(8)7(11)12/h3-4,6H,1-2H3,(H2,11,12)/t4-,6+/m0/s1

> <PUBCHEM_IUPAC_INCHIKEY>
LGLPSKCJXYYLMZ-UJURSFKZSA-N

> <PUBCHEM_XLOGP3>
2.7

> <PUBCHEM_EXACT_MASS>
207.021769

> <PUBCHEM_MOLECULAR_FORMULA>
C8H11Cl2NO

> <PUBCHEM_MOLECULAR_WEIGHT>
208.08504

> <PUBCHEM_OPENEYE_CAN_SMILES>
CC1(C(C1C(=O)N)C=C(Cl)Cl)C

> <PUBCHEM_OPENEYE_ISO_SMILES>
CC1([C@H]([C@@H]1C(=O)N)C=C(Cl)Cl)C

> <PUBCHEM_CACTVS_TPSA>
43.1

> <PUBCHEM_MONOISOTOPIC_WEIGHT>
207.021769

> <PUBCHEM_TOTAL_CHARGE>
0

> <PUBCHEM_HEAVY_ATOM_COUNT>
12

> <PUBCHEM_ATOM_DEF_STEREO_COUNT>
2

> <PUBCHEM_ATOM_UDEF_STEREO_COUNT>
0

> <PUBCHEM_BOND_DEF_STEREO_COUNT>
0

> <PUBCHEM_BOND_UDEF_STEREO_COUNT>
0

> <PUBCHEM_ISOTOPIC_ATOM_COUNT>
0

> <PUBCHEM_COMPONENT_COUNT>
1

> <PUBCHEM_CACTVS_TAUTO_COUNT>
3

> <PUBCHEM_COORDINATE_TYPE>
1
5
255

> <PUBCHEM_BONDANNOTATIONS>
6  10  5
7  11  6

$$$$
35341376
  -OEChem-11301217462D

 23 23  0     1  0  0  0  0  0999 V2000
    2.0000    2.2320    0.0000 Cl  0  0  0  0  0  0  0  0  0  0  0  0
    2.0000    0.5000    0.0000 Cl  0  0  0  0  0  0  0  0  0  0  0  0
    4.0000   -2.2320    0.0000 O   0  0  0  0  0  0  0  0  0  0  0  0
    2.5000   -1.3660    0.0000 N   0  0  0  0  0  0  0  0  0  0  0  0
    4.8660    0.0000    0.0000 C   0  0  0  0  0  0  0  0  0  0  0  0
    4.0000   -0.5000    0.0000 C   0  0  2  0  0  0  0  0  0  0  0  0
    4.0000    0.5000    0.0000 C   0  0  1  0  0  0  0  0  0  0  0  0
    5.3660   -0.8660    0.0000 C   0  0  0  0  0  0  0  0  0  0  0  0
    5.3660    0.8660    0.0000 C   0  0  0  0  0  0  0  0  0  0  0  0
    3.5000   -1.3660    0.0000 C   0  0  0  0  0  0  0  0  0  0  0  0
    3.5000    1.3660    0.0000 C   0  0  0  0  0  0  0  0  0  0  0  0
    2.5000    1.3660    0.0000 C   0  0  0  0  0  0  0  0  0  0  0  0
    3.4011   -0.3395    0.0000 H   0  0  0  0  0  0  0  0  0  0  0  0
    3.4011    0.3395    0.0000 H   0  0  0  0  0  0  0  0  0  0  0  0
    4.8291   -1.1760    0.0000 H   0  0  0  0  0  0  0  0  0  0  0  0
    5.6760   -1.4030    0.0000 H   0  0  0  0  0  0  0  0  0  0  0  0
    5.9030   -0.5560    0.0000 H   0  0  0  0  0  0  0  0  0  0  0  0
    5.9030    0.5560    0.0000 H   0  0  0  0  0  0  0  0  0  0  0  0
    5.6760    1.4030    0.0000 H   0  0  0  0  0  0  0  0  0  0  0  0
    4.8291    1.1760    0.0000 H   0  0  0  0  0  0  0  0  0  0  0  0
    3.8100    1.9030    0.0000 H   0  0  0  0  0  0  0  0  0  0  0  0
    2.1900   -1.9030    0.0000 H   0  0  0  0  0  0  0  0  0  0  0  0
    2.1900   -0.8291    0.0000 H   0  0  0  0  0  0  0  0  0  0  0  0
  1 12  1  0  0  0  0
  2 12  1  0  0  0  0
  3 10  2  0  0  0  0
  4 10  1  0  0  0  0
  4 22  1  0  0  0  0
  4 23  1  0  0  0  0
  5  6  1  0  0  0  0
  5  7  1  0  0  0  0
  5  8  1  0  0  0  0
  5  9  1  0  0  0  0
  6  7  1  0  0  0  0
  6 10  1  1  0  0  0
  6 13  1  0  0  0  0
  7 11  1  1  0  0  0
  7 14  1  0  0  0  0
  8 15  1  0  0  0  0
  8 16  1  0  0  0  0
  8 17  1  0  0  0  0
  9 18  1  0  0  0  0
  9 19  1  0  0  0  0
  9 20  1  0  0  0  0
 11 12  2  0  0  0  0
 11 21  1  0  0  0  0
M  END
> <PUBCHEM_COMPOUND_CID>
35341376

> <PUBCHEM_COMPOUND_CANONICALIZED>
1

> <PUBCHEM_CACTVS_COMPLEXITY>
243

> <PUBCHEM_CACTVS_HBOND_ACCEPTOR>
1

> <PUBCHEM_CACTVS_HBOND_DONOR>
1

> <PUBCHEM_CACTVS_ROTATABLE_BOND>
2

> <PUBCHEM_CACTVS_SUBSKEYS>
AAADccByIAAGAAAAAAAAAAAAGAAAAAAAAAAAAAAAAAAAAAAAAAAAHgIQAAAADwKBgIACAABAAACIACFSEAAAAAAgAAAAAAEAAAgAABIAgAAAAAAAkAAAAAAYAAAPgAAAAAAAAAAAAAAAAAAAAAAAAAAAAA==

> <PUBCHEM_IUPAC_OPENEYE_NAME>
(1S,3S)-3-(2,2-dichlorovinyl)-2,2-dimethyl-cyclopropanecarboxamide

> <PUBCHEM_IUPAC_CAS_NAME>
(1S,3S)-3-(2,2-dichloroethenyl)-2,2-dimethyl-1-cyclopropanecarboxamide

> <PUBCHEM_IUPAC_NAME>
(1S,3S)-3-(2,2-dichloroethenyl)-2,2-dimethylcyclopropane-1-carboxamide

> <PUBCHEM_IUPAC_SYSTEMATIC_NAME>
(1S,3S)-3-[2,2-bis(chloranyl)ethenyl]-2,2-dimethyl-cyclopropane-1-carboxamide

> <PUBCHEM_IUPAC_TRADITIONAL_NAME>
(1S,3S)-3-(2,2-dichlorovinyl)-2,2-dimethyl-cyclopropanecarboxamide

> <PUBCHEM_IUPAC_INCHI>
InChI=1S/C8H11Cl2NO/c1-8(2)4(3-5(9)10)6(8)7(11)12/h3-4,6H,1-2H3,(H2,11,12)/t4-,6-/m1/s1

> <PUBCHEM_IUPAC_INCHIKEY>
LGLPSKCJXYYLMZ-INEUFUBQSA-N

> <PUBCHEM_XLOGP3>
2.7

> <PUBCHEM_EXACT_MASS>
207.021769

> <PUBCHEM_MOLECULAR_FORMULA>
C8H11Cl2NO

> <PUBCHEM_MOLECULAR_WEIGHT>
208.08504

> <PUBCHEM_OPENEYE_CAN_SMILES>
CC1(C(C1C(=O)N)C=C(Cl)Cl)C

> <PUBCHEM_OPENEYE_ISO_SMILES>
CC1([C@@H]([C@@H]1C(=O)N)C=C(Cl)Cl)C

> <PUBCHEM_CACTVS_TPSA>
43.1

> <PUBCHEM_MONOISOTOPIC_WEIGHT>
207.021769

> <PUBCHEM_TOTAL_CHARGE>
0

> <PUBCHEM_HEAVY_ATOM_COUNT>
12

> <PUBCHEM_ATOM_DEF_STEREO_COUNT>
2

> <PUBCHEM_ATOM_UDEF_STEREO_COUNT>
0

> <PUBCHEM_BOND_DEF_STEREO_COUNT>
0

> <PUBCHEM_BOND_UDEF_STEREO_COUNT>
0

> <PUBCHEM_ISOTOPIC_ATOM_COUNT>
0

> <PUBCHEM_COMPONENT_COUNT>
1

> <PUBCHEM_CACTVS_TAUTO_COUNT>
3

> <PUBCHEM_COORDINATE_TYPE>
1
5
255

> <PUBCHEM_BONDANNOTATIONS>
6  10  5
7  11  5

$$$$
35341381
  -OEChem-11301217462D

 23 23  0     1  0  0  0  0  0999 V2000
    2.0000    2.2320    0.0000 Cl  0  0  0  0  0  0  0  0  0  0  0  0
    2.0000    0.5000    0.0000 Cl  0  0  0  0  0  0  0  0  0  0  0  0
    4.0000   -2.2320    0.0000 O   0  0  0  0  0  0  0  0  0  0  0  0
    2.5000   -1.3660    0.0000 N   0  0  0  0  0  0  0  0  0  0  0  0
    4.8660    0.0000    0.0000 C   0  0  0  0  0  0  0  0  0  0  0  0
    4.0000   -0.5000    0.0000 C   0  0  1  0  0  0  0  0  0  0  0  0
    4.0000    0.5000    0.0000 C   0  0  2  0  0  0  0  0  0  0  0  0
    5.3660   -0.8660    0.0000 C   0  0  0  0  0  0  0  0  0  0  0  0
    5.3660    0.8660    0.0000 C   0  0  0  0  0  0  0  0  0  0  0  0
    3.5000   -1.3660    0.0000 C   0  0  0  0  0  0  0  0  0  0  0  0
    3.5000    1.3660    0.0000 C   0  0  0  0  0  0  0  0  0  0  0  0
    2.5000    1.3660    0.0000 C   0  0  0  0  0  0  0  0  0  0  0  0
    3.4011   -0.3395    0.0000 H   0  0  0  0  0  0  0  0  0  0  0  0
    3.4011    0.3395    0.0000 H   0  0  0  0  0  0  0  0  0  0  0  0
    4.8291   -1.1760    0.0000 H   0  0  0  0  0  0  0  0  0  0  0  0
    5.6760   -1.4030    0.0000 H   0  0  0  0  0  0  0  0  0  0  0  0
    5.9030   -0.5560    0.0000 H   0  0  0  0  0  0  0  0  0  0  0  0
    5.9030    0.5560    0.0000 H   0  0  0  0  0  0  0  0  0  0  0  0
    5.6760    1.4030    0.0000 H   0  0  0  0  0  0  0  0  0  0  0  0
    4.8291    1.1760    0.0000 H   0  0  0  0  0  0  0  0  0  0  0  0
    3.8100    1.9030    0.0000 H   0  0  0  0  0  0  0  0  0  0  0  0
    2.1900   -1.9030    0.0000 H   0  0  0  0  0  0  0  0  0  0  0  0
    2.1900   -0.8291    0.0000 H   0  0  0  0  0  0  0  0  0  0  0  0
  1 12  1  0  0  0  0
  2 12  1  0  0  0  0
  3 10  2  0  0  0  0
  4 10  1  0  0  0  0
  4 22  1  0  0  0  0
  4 23  1  0  0  0  0
  5  6  1  0  0  0  0
  5  7  1  0  0  0  0
  5  8  1  0  0  0  0
  5  9  1  0  0  0  0
  6  7  1  0  0  0  0
  6 10  1  6  0  0  0
  6 13  1  0  0  0  0
  7 11  1  6  0  0  0
  7 14  1  0  0  0  0
  8 15  1  0  0  0  0
  8 16  1  0  0  0  0
  8 17  1  0  0  0  0
  9 18  1  0  0  0  0
  9 19  1  0  0  0  0
  9 20  1  0  0  0  0
 11 12  2  0  0  0  0
 11 21  1  0  0  0  0
M  END
> <PUBCHEM_COMPOUND_CID>
35341381

> <PUBCHEM_COMPOUND_CANONICALIZED>
1

> <PUBCHEM_CACTVS_COMPLEXITY>
243

> <PUBCHEM_CACTVS_HBOND_ACCEPTOR>
1

> <PUBCHEM_CACTVS_HBOND_DONOR>
1

> <PUBCHEM_CACTVS_ROTATABLE_BOND>
2

> <PUBCHEM_CACTVS_SUBSKEYS>
AAADccByIAAGAAAAAAAAAAAAGAAAAAAAAAAAAAAAAAAAAAAAAAAAHgIQAAAADwKBgIACAABAAACIACFSEAAAAAAgAAAAAAEAAAgAABIAgAAAAAAAkAAAAAAYAAAPgAAAAAAAAAAAAAAAAAAAAAAAAAAAAA==

> <PUBCHEM_IUPAC_OPENEYE_NAME>
(1R,3R)-3-(2,2-dichlorovinyl)-2,2-dimethyl-cyclopropanecarboxamide

> <PUBCHEM_IUPAC_CAS_NAME>
(1R,3R)-3-(2,2-dichloroethenyl)-2,2-dimethyl-1-cyclopropanecarboxamide

> <PUBCHEM_IUPAC_NAME>
(1R,3R)-3-(2,2-dichloroethenyl)-2,2-dimethylcyclopropane-1-carboxamide

> <PUBCHEM_IUPAC_SYSTEMATIC_NAME>
(1R,3R)-3-[2,2-bis(chloranyl)ethenyl]-2,2-dimethyl-cyclopropane-1-carboxamide

> <PUBCHEM_IUPAC_TRADITIONAL_NAME>
(1R,3R)-3-(2,2-dichlorovinyl)-2,2-dimethyl-cyclopropanecarboxamide

> <PUBCHEM_IUPAC_INCHI>
InChI=1S/C8H11Cl2NO/c1-8(2)4(3-5(9)10)6(8)7(11)12/h3-4,6H,1-2H3,(H2,11,12)/t4-,6-/m0/s1

> <PUBCHEM_IUPAC_INCHIKEY>
LGLPSKCJXYYLMZ-NJGYIYPDSA-N

> <PUBCHEM_XLOGP3>
2.7

> <PUBCHEM_EXACT_MASS>
207.021769

> <PUBCHEM_MOLECULAR_FORMULA>
C8H11Cl2NO

> <PUBCHEM_MOLECULAR_WEIGHT>
208.08504

> <PUBCHEM_OPENEYE_CAN_SMILES>
CC1(C(C1C(=O)N)C=C(Cl)Cl)C

> <PUBCHEM_OPENEYE_ISO_SMILES>
CC1([C@H]([C@H]1C(=O)N)C=C(Cl)Cl)C

> <PUBCHEM_CACTVS_TPSA>
43.1

> <PUBCHEM_MONOISOTOPIC_WEIGHT>
207.021769

> <PUBCHEM_TOTAL_CHARGE>
0

> <PUBCHEM_HEAVY_ATOM_COUNT>
12

> <PUBCHEM_ATOM_DEF_STEREO_COUNT>
2

> <PUBCHEM_ATOM_UDEF_STEREO_COUNT>
0

> <PUBCHEM_BOND_DEF_STEREO_COUNT>
0

> <PUBCHEM_BOND_UDEF_STEREO_COUNT>
0

> <PUBCHEM_ISOTOPIC_ATOM_COUNT>
0

> <PUBCHEM_COMPONENT_COUNT>
1

> <PUBCHEM_CACTVS_TAUTO_COUNT>
3

> <PUBCHEM_COORDINATE_TYPE>
1
5
255

> <PUBCHEM_BONDANNOTATIONS>
6  10  6
7  11  6

$$$$
35341385
  -OEChem-11301217462D

 23 23  0     1  0  0  0  0  0999 V2000
    2.0000    2.2320    0.0000 Cl  0  0  0  0  0  0  0  0  0  0  0  0
    2.0000    0.5000    0.0000 Cl  0  0  0  0  0  0  0  0  0  0  0  0
    4.0000   -2.2320    0.0000 O   0  0  0  0  0  0  0  0  0  0  0  0
    2.5000   -1.3660    0.0000 N   0  0  0  0  0  0  0  0  0  0  0  0
    4.8660    0.0000    0.0000 C   0  0  0  0  0  0  0  0  0  0  0  0
    4.0000   -0.5000    0.0000 C   0  0  1  0  0  0  0  0  0  0  0  0
    4.0000    0.5000    0.0000 C   0  0  1  0  0  0  0  0  0  0  0  0
    5.3660   -0.8660    0.0000 C   0  0  0  0  0  0  0  0  0  0  0  0
    5.3660    0.8660    0.0000 C   0  0  0  0  0  0  0  0  0  0  0  0
    3.5000   -1.3660    0.0000 C   0  0  0  0  0  0  0  0  0  0  0  0
    3.5000    1.3660    0.0000 C   0  0  0  0  0  0  0  0  0  0  0  0
    2.5000    1.3660    0.0000 C   0  0  0  0  0  0  0  0  0  0  0  0
    3.4011   -0.3395    0.0000 H   0  0  0  0  0  0  0  0  0  0  0  0
    3.4011    0.3395    0.0000 H   0  0  0  0  0  0  0  0  0  0  0  0
    4.8291   -1.1760    0.0000 H   0  0  0  0  0  0  0  0  0  0  0  0
    5.6760   -1.4030    0.0000 H   0  0  0  0  0  0  0  0  0  0  0  0
    5.9030   -0.5560    0.0000 H   0  0  0  0  0  0  0  0  0  0  0  0
    5.9030    0.5560    0.0000 H   0  0  0  0  0  0  0  0  0  0  0  0
    5.6760    1.4030    0.0000 H   0  0  0  0  0  0  0  0  0  0  0  0
    4.8291    1.1760    0.0000 H   0  0  0  0  0  0  0  0  0  0  0  0
    3.8100    1.9030    0.0000 H   0  0  0  0  0  0  0  0  0  0  0  0
    2.1900   -1.9030    0.0000 H   0  0  0  0  0  0  0  0  0  0  0  0
    2.1900   -0.8291    0.0000 H   0  0  0  0  0  0  0  0  0  0  0  0
  1 12  1  0  0  0  0
  2 12  1  0  0  0  0
  3 10  2  0  0  0  0
  4 10  1  0  0  0  0
  4 22  1  0  0  0  0
  4 23  1  0  0  0  0
  5  6  1  0  0  0  0
  5  7  1  0  0  0  0
  5  8  1  0  0  0  0
  5  9  1  0  0  0  0
  6  7  1  0  0  0  0
  6 10  1  6  0  0  0
  6 13  1  0  0  0  0
  7 11  1  1  0  0  0
  7 14  1  0  0  0  0
  8 15  1  0  0  0  0
  8 16  1  0  0  0  0
  8 17  1  0  0  0  0
  9 18  1  0  0  0  0
  9 19  1  0  0  0  0
  9 20  1  0  0  0  0
 11 12  2  0  0  0  0
 11 21  1  0  0  0  0
M  END
> <PUBCHEM_COMPOUND_CID>
35341385

> <PUBCHEM_COMPOUND_CANONICALIZED>
1

> <PUBCHEM_CACTVS_COMPLEXITY>
243

> <PUBCHEM_CACTVS_HBOND_ACCEPTOR>
1

> <PUBCHEM_CACTVS_HBOND_DONOR>
1

> <PUBCHEM_CACTVS_ROTATABLE_BOND>
2

> <PUBCHEM_CACTVS_SUBSKEYS>
AAADccByIAAGAAAAAAAAAAAAGAAAAAAAAAAAAAAAAAAAAAAAAAAAHgIQAAAADwKBgIACAABAAACIACFSEAAAAAAgAAAAAAEAAAgAABIAgAAAAAAAkAAAAAAYAAAPgAAAAAAAAAAAAAAAAAAAAAAAAAAAAA==

> <PUBCHEM_IUPAC_OPENEYE_NAME>
(1R,3S)-3-(2,2-dichlorovinyl)-2,2-dimethyl-cyclopropanecarboxamide

> <PUBCHEM_IUPAC_CAS_NAME>
(1R,3S)-3-(2,2-dichloroethenyl)-2,2-dimethyl-1-cyclopropanecarboxamide

> <PUBCHEM_IUPAC_NAME>
(1R,3S)-3-(2,2-dichloroethenyl)-2,2-dimethylcyclopropane-1-carboxamide

> <PUBCHEM_IUPAC_SYSTEMATIC_NAME>
(1R,3S)-3-[2,2-bis(chloranyl)ethenyl]-2,2-dimethyl-cyclopropane-1-carboxamide

> <PUBCHEM_IUPAC_TRADITIONAL_NAME>
(1R,3S)-3-(2,2-dichlorovinyl)-2,2-dimethyl-cyclopropanecarboxamide

> <PUBCHEM_IUPAC_INCHI>
InChI=1S/C8H11Cl2NO/c1-8(2)4(3-5(9)10)6(8)7(11)12/h3-4,6H,1-2H3,(H2,11,12)/t4-,6+/m1/s1

> <PUBCHEM_IUPAC_INCHIKEY>
LGLPSKCJXYYLMZ-XINAWCOVSA-N

> <PUBCHEM_XLOGP3>
2.7

> <PUBCHEM_EXACT_MASS>
207.021769

> <PUBCHEM_MOLECULAR_FORMULA>
C8H11Cl2NO

> <PUBCHEM_MOLECULAR_WEIGHT>
208.08504

> <PUBCHEM_OPENEYE_CAN_SMILES>
CC1(C(C1C(=O)N)C=C(Cl)Cl)C

> <PUBCHEM_OPENEYE_ISO_SMILES>
CC1([C@@H]([C@H]1C(=O)N)C=C(Cl)Cl)C

> <PUBCHEM_CACTVS_TPSA>
43.1

> <PUBCHEM_MONOISOTOPIC_WEIGHT>
207.021769

> <PUBCHEM_TOTAL_CHARGE>
0

> <PUBCHEM_HEAVY_ATOM_COUNT>
12

> <PUBCHEM_ATOM_DEF_STEREO_COUNT>
2

> <PUBCHEM_ATOM_UDEF_STEREO_COUNT>
0

> <PUBCHEM_BOND_DEF_STEREO_COUNT>
0

> <PUBCHEM_BOND_UDEF_STEREO_COUNT>
0

> <PUBCHEM_ISOTOPIC_ATOM_COUNT>
0

> <PUBCHEM_COMPONENT_COUNT>
1

> <PUBCHEM_CACTVS_TAUTO_COUNT>
3

> <PUBCHEM_COORDINATE_TYPE>
1
5
255

> <PUBCHEM_BONDANNOTATIONS>
6  10  6
7  11  5

$$$$
