56401721
  -OEChem-11301218092D

 34 34  0     0  0  0  0  0  0999 V2000
    3.7320   -3.5000    0.0000 I   0  0  0  0  0  0  0  0  0  0  0  0
    5.4641    0.5000    0.0000 O   0  0  0  0  0  0  0  0  0  0  0  0
    3.7320    0.5000    0.0000 N   0  0  0  0  0  0  0  0  0  0  0  0
    4.5981    2.0000    0.0000 C   0  0  0  0  0  0  0  0  0  0  0  0
    4.5981    3.0000    0.0000 C   0  0  0  0  0  0  0  0  0  0  0  0
    5.5981    2.0000    0.0000 C   0  0  0  0  0  0  0  0  0  0  0  0
    3.5981    2.0000    0.0000 C   0  0  0  0  0  0  0  0  0  0  0  0
    4.5981    1.0000    0.0000 C   0  0  0  0  0  0  0  0  0  0  0  0
    5.4641    3.5000    0.0000 C   0  0  0  0  0  0  0  0  0  0  0  0
    3.7320   -0.5000    0.0000 C   0  0  0  0  0  0  0  0  0  0  0  0
    2.8660   -1.0000    0.0000 C   0  0  0  0  0  0  0  0  0  0  0  0
    4.5981   -1.0000    0.0000 C   0  0  0  0  0  0  0  0  0  0  0  0
    2.8660   -2.0000    0.0000 C   0  0  0  0  0  0  0  0  0  0  0  0
    2.0000   -0.5000    0.0000 C   0  0  0  0  0  0  0  0  0  0  0  0
    4.5981   -2.0000    0.0000 C   0  0  0  0  0  0  0  0  0  0  0  0
    3.7320   -2.5000    0.0000 C   0  0  0  0  0  0  0  0  0  0  0  0
    4.3860    3.5826    0.0000 H   0  0  0  0  0  0  0  0  0  0  0  0
    3.9875    2.8923    0.0000 H   0  0  0  0  0  0  0  0  0  0  0  0
    3.5981    2.6200    0.0000 H   0  0  0  0  0  0  0  0  0  0  0  0
    2.9781    2.0000    0.0000 H   0  0  0  0  0  0  0  0  0  0  0  0
    5.5981    1.3800    0.0000 H   0  0  0  0  0  0  0  0  0  0  0  0
    6.2181    2.0000    0.0000 H   0  0  0  0  0  0  0  0  0  0  0  0
    5.5981    2.6200    0.0000 H   0  0  0  0  0  0  0  0  0  0  0  0
    3.5981    1.3800    0.0000 H   0  0  0  0  0  0  0  0  0  0  0  0
    5.7741    2.9631    0.0000 H   0  0  0  0  0  0  0  0  0  0  0  0
    6.0010    3.8100    0.0000 H   0  0  0  0  0  0  0  0  0  0  0  0
    5.1541    4.0369    0.0000 H   0  0  0  0  0  0  0  0  0  0  0  0
    3.1951    0.8100    0.0000 H   0  0  0  0  0  0  0  0  0  0  0  0
    5.1350   -0.6900    0.0000 H   0  0  0  0  0  0  0  0  0  0  0  0
    2.3291   -2.3100    0.0000 H   0  0  0  0  0  0  0  0  0  0  0  0
    2.3100    0.0369    0.0000 H   0  0  0  0  0  0  0  0  0  0  0  0
    1.4631   -0.1900    0.0000 H   0  0  0  0  0  0  0  0  0  0  0  0
    1.6900   -1.0369    0.0000 H   0  0  0  0  0  0  0  0  0  0  0  0
    5.1350   -2.3100    0.0000 H   0  0  0  0  0  0  0  0  0  0  0  0
  1 16  1  0  0  0  0
  2  8  2  0  0  0  0
  3  8  1  0  0  0  0
  3 10  1  0  0  0  0
  3 28  1  0  0  0  0
  4  5  1  0  0  0  0
  4  6  1  0  0  0  0
  4  7  1  0  0  0  0
  4  8  1  0  0  0  0
  5  9  1  0  0  0  0
  5 17  1  0  0  0  0
  5 18  1  0  0  0  0
  6 21  1  0  0  0  0
  6 22  1  0  0  0  0
  6 23  1  0  0  0  0
  7 19  1  0  0  0  0
  7 20  1  0  0  0  0
  7 24  1  0  0  0  0
  9 25  1  0  0  0  0
  9 26  1  0  0  0  0
  9 27  1  0  0  0  0
 10 11  2  0  0  0  0
 10 12  1  0  0  0  0
 11 13  1  0  0  0  0
 11 14  1  0  0  0  0
 12 15  2  0  0  0  0
 12 29  1  0  0  0  0
 13 16  2  0  0  0  0
 13 30  1  0  0  0  0
 14 31  1  0  0  0  0
 14 32  1  0  0  0  0
 14 33  1  0  0  0  0
 15 16  1  0  0  0  0
 15 34  1  0  0  0  0
M  END
> <PUBCHEM_COMPOUND_CID>
56401721

> <PUBCHEM_COMPOUND_CANONICALIZED>
1

> <PUBCHEM_CACTVS_COMPLEXITY>
252

> <PUBCHEM_CACTVS_HBOND_ACCEPTOR>
1

> <PUBCHEM_CACTVS_HBOND_DONOR>
1

> <PUBCHEM_CACTVS_ROTATABLE_BOND>
3

> <PUBCHEM_CACTVS_SUBSKEYS>
AAADceByIAAAAgAAAAAAAAAAAAAAAAAAAAAwAAAAAAAAAAABAAAAHgAwAAAADgiDmAAywILAAACIAiVSUACCAAAhAgAIiAEAZIgIIDLAkZGEIAhglADIyAcQgAAPAAAAAAACAAAAAAAAAAQAAAAAAAAAAA==

> <PUBCHEM_IUPAC_OPENEYE_NAME>
N-(4-iodo-2-methyl-phenyl)-2,2-dimethyl-butanamide

> <PUBCHEM_IUPAC_CAS_NAME>
N-(4-iodo-2-methylphenyl)-2,2-dimethylbutanamide

> <PUBCHEM_IUPAC_NAME>
N-(4-iodo-2-methylphenyl)-2,2-dimethylbutanamide

> <PUBCHEM_IUPAC_SYSTEMATIC_NAME>
N-(4-iodanyl-2-methyl-phenyl)-2,2-dimethyl-butanamide

> <PUBCHEM_IUPAC_TRADITIONAL_NAME>
N-(4-iodo-2-methyl-phenyl)-2,2-dimethyl-butyramide

> <PUBCHEM_IUPAC_INCHI>
InChI=1S/C13H18INO/c1-5-13(3,4)12(16)15-11-7-6-10(14)8-9(11)2/h6-8H,5H2,1-4H3,(H,15,16)

> <PUBCHEM_IUPAC_INCHIKEY>
DINIDUIMWDJPCE-UHFFFAOYSA-N

> <PUBCHEM_XLOGP3>
3.5

> <PUBCHEM_EXACT_MASS>
331.043312

> <PUBCHEM_MOLECULAR_FORMULA>
C13H18INO

> <PUBCHEM_MOLECULAR_WEIGHT>
331.19259

> <PUBCHEM_OPENEYE_CAN_SMILES>
CCC(C)(C)C(=O)NC1=C(C=C(C=C1)I)C

> <PUBCHEM_OPENEYE_ISO_SMILES>
CCC(C)(C)C(=O)NC1=C(C=C(C=C1)I)C

> <PUBCHEM_CACTVS_TPSA>
29.1

> <PUBCHEM_MONOISOTOPIC_WEIGHT>
331.043312

> <PUBCHEM_TOTAL_CHARGE>
0

> <PUBCHEM_HEAVY_ATOM_COUNT>
16

> <PUBCHEM_ATOM_DEF_STEREO_COUNT>
0

> <PUBCHEM_ATOM_UDEF_STEREO_COUNT>
0

> <PUBCHEM_BOND_DEF_STEREO_COUNT>
0

> <PUBCHEM_BOND_UDEF_STEREO_COUNT>
0

> <PUBCHEM_ISOTOPIC_ATOM_COUNT>
0

> <PUBCHEM_COMPONENT_COUNT>
1

> <PUBCHEM_CACTVS_TAUTO_COUNT>
2

> <PUBCHEM_COORDINATE_TYPE>
1
5
255

> <PUBCHEM_BONDANNOTATIONS>
10  11  8
10  12  8
11  13  8
12  15  8
13  16  8
15  16  8

$$$$
56401835
  -OEChem-11301218092D

 43 46  0     0  0  0  0  0  0999 V2000
    6.9809   -1.7630    0.0000 S   0  0  0  0  0  0  0  0  0  0  0  0
    7.2566   -0.0024    0.0000 S   0  0  0  0  0  0  0  0  0  0  0  0
    6.6480   -5.4258    0.0000 O   0  0  0  0  0  0  0  0  0  0  0  0
    7.2627   -3.5226    0.0000 N   0  0  0  0  0  0  0  0  0  0  0  0
    4.6783    2.3110    0.0000 N   0  0  0  0  0  0  0  0  0  0  0  0
    8.5206   -2.2603    0.0000 N   0  0  0  0  0  0  0  0  0  0  0  0
    4.6783    3.9205    0.0000 N   0  0  0  0  0  0  0  0  0  0  0  0
    2.8660    2.1158    0.0000 N   0  0  0  0  0  0  0  0  0  0  0  0
    8.5189   -1.2603    0.0000 N   0  0  0  0  0  0  0  0  0  0  0  0
    2.0000    3.6158    0.0000 N   0  0  0  0  0  0  0  0  0  0  0  0
    2.8660    5.1158    0.0000 N   0  0  0  0  0  0  0  0  0  0  0  0
    7.9331   -4.2646    0.0000 C   0  0  0  0  0  0  0  0  0  0  0  0
    6.2849   -3.7322    0.0000 C   0  0  0  0  0  0  0  0  0  0  0  0
    7.6257   -5.2162    0.0000 C   0  0  0  0  0  0  0  0  0  0  0  0
    5.9775   -4.6838    0.0000 C   0  0  0  0  0  0  0  0  0  0  0  0
    4.9889    1.3605    0.0000 C   0  0  0  0  0  0  0  0  0  0  0  0
    5.9674    1.1543    0.0000 C   0  0  0  0  0  0  0  0  0  0  0  0
    7.5701   -2.5710    0.0000 C   0  0  0  0  0  0  0  0  0  0  0  0
    6.2781    0.2038    0.0000 C   0  0  0  0  0  0  0  0  0  0  0  0
    3.7320    2.6158    0.0000 C   0  0  0  0  0  0  0  0  0  0  0  0
    3.7320    3.6158    0.0000 C   0  0  0  0  0  0  0  0  0  0  0  0
    5.2619    3.1158    0.0000 C   0  0  0  0  0  0  0  0  0  0  0  0
    7.5673   -0.9530    0.0000 C   0  0  0  0  0  0  0  0  0  0  0  0
    2.8660    4.1158    0.0000 C   0  0  0  0  0  0  0  0  0  0  0  0
    2.0000    2.6158    0.0000 C   0  0  0  0  0  0  0  0  0  0  0  0
    8.4810   -4.5547    0.0000 H   0  0  0  0  0  0  0  0  0  0  0  0
    8.3140   -3.7754    0.0000 H   0  0  0  0  0  0  0  0  0  0  0  0
    6.2622   -3.1126    0.0000 H   0  0  0  0  0  0  0  0  0  0  0  0
    5.6708   -3.6470    0.0000 H   0  0  0  0  0  0  0  0  0  0  0  0
    7.6484   -5.8358    0.0000 H   0  0  0  0  0  0  0  0  0  0  0  0
    8.2399   -5.3014    0.0000 H   0  0  0  0  0  0  0  0  0  0  0  0
    5.4296   -4.3937    0.0000 H   0  0  0  0  0  0  0  0  0  0  0  0
    5.5967   -5.1730    0.0000 H   0  0  0  0  0  0  0  0  0  0  0  0
    4.3751    1.2732    0.0000 H   0  0  0  0  0  0  0  0  0  0  0  0
    4.9684    0.7409    0.0000 H   0  0  0  0  0  0  0  0  0  0  0  0
    6.5812    1.2416    0.0000 H   0  0  0  0  0  0  0  0  0  0  0  0
    5.9880    1.7740    0.0000 H   0  0  0  0  0  0  0  0  0  0  0  0
    5.6643    0.1164    0.0000 H   0  0  0  0  0  0  0  0  0  0  0  0
    6.2575   -0.4159    0.0000 H   0  0  0  0  0  0  0  0  0  0  0  0
    5.8819    3.1158    0.0000 H   0  0  0  0  0  0  0  0  0  0  0  0
    1.4631    2.3058    0.0000 H   0  0  0  0  0  0  0  0  0  0  0  0
    2.3291    5.4258    0.0000 H   0  0  0  0  0  0  0  0  0  0  0  0
    3.4030    5.4258    0.0000 H   0  0  0  0  0  0  0  0  0  0  0  0
  1 18  1  0  0  0  0
  1 23  1  0  0  0  0
  2 19  1  0  0  0  0
  2 23  1  0  0  0  0
  3 14  1  0  0  0  0
  3 15  1  0  0  0  0
  4 12  1  0  0  0  0
  4 13  1  0  0  0  0
  4 18  1  0  0  0  0
  5 16  1  0  0  0  0
  5 20  1  0  0  0  0
  5 22  1  0  0  0  0
  6  9  1  0  0  0  0
  6 18  2  0  0  0  0
  7 21  1  0  0  0  0
  7 22  2  0  0  0  0
  8 20  2  0  0  0  0
  8 25  1  0  0  0  0
  9 23  2  0  0  0  0
 10 24  1  0  0  0  0
 10 25  2  0  0  0  0
 11 24  1  0  0  0  0
 11 42  1  0  0  0  0
 11 43  1  0  0  0  0
 12 14  1  0  0  0  0
 12 26  1  0  0  0  0
 12 27  1  0  0  0  0
 13 15  1  0  0  0  0
 13 28  1  0  0  0  0
 13 29  1  0  0  0  0
 14 30  1  0  0  0  0
 14 31  1  0  0  0  0
 15 32  1  0  0  0  0
 15 33  1  0  0  0  0
 16 17  1  0  0  0  0
 16 34  1  0  0  0  0
 16 35  1  0  0  0  0
 17 19  1  0  0  0  0
 17 36  1  0  0  0  0
 17 37  1  0  0  0  0
 19 38  1  0  0  0  0
 19 39  1  0  0  0  0
 20 21  1  0  0  0  0
 21 24  2  0  0  0  0
 22 40  1  0  0  0  0
 25 41  1  0  0  0  0
M  END
> <PUBCHEM_COMPOUND_CID>
56401835

> <PUBCHEM_COMPOUND_CANONICALIZED>
1

> <PUBCHEM_CACTVS_COMPLEXITY>
430

> <PUBCHEM_CACTVS_HBOND_ACCEPTOR>
10

> <PUBCHEM_CACTVS_HBOND_DONOR>
1

> <PUBCHEM_CACTVS_ROTATABLE_BOND>
6

> <PUBCHEM_CACTVS_SUBSKEYS>
AAADceBz4ABgAAAAAAAAAAAAAAAAAWLAAAAsWAAAAAAAAFgB/gAAHgQYAAAACAjl1waF8L9MFAimAQZhZACQgS9RELgFUCAoVBCCSABgSEAXBAgIAALQACAAAAAAAAAAAAAAAAAAAAAAAAAAAAAAAAAAAA==

> <PUBCHEM_IUPAC_OPENEYE_NAME>
9-[3-[(5-morpholino-1,3,4-thiadiazol-2-yl)sulfanyl]propyl]purin-6-amine

> <PUBCHEM_IUPAC_CAS_NAME>
9-[3-[[5-(4-morpholinyl)-1,3,4-thiadiazol-2-yl]thio]propyl]-6-purinamine

> <PUBCHEM_IUPAC_NAME>
9-[3-[(5-morpholin-4-yl-1,3,4-thiadiazol-2-yl)sulfanyl]propyl]purin-6-amine

> <PUBCHEM_IUPAC_SYSTEMATIC_NAME>
9-[3-[(5-morpholin-4-yl-1,3,4-thiadiazol-2-yl)sulfanyl]propyl]purin-6-amine

> <PUBCHEM_IUPAC_TRADITIONAL_NAME>
[9-[3-[(5-morpholino-1,3,4-thiadiazol-2-yl)thio]propyl]purin-6-yl]amine

> <PUBCHEM_IUPAC_INCHI>
InChI=1S/C14H18N8OS2/c15-11-10-12(17-8-16-11)22(9-18-10)2-1-7-24-14-20-19-13(25-14)21-3-5-23-6-4-21/h8-9H,1-7H2,(H2,15,16,17)

> <PUBCHEM_IUPAC_INCHIKEY>
IEWNFIOGVZRMEZ-UHFFFAOYSA-N

> <PUBCHEM_XLOGP3>
1.3

> <PUBCHEM_EXACT_MASS>
378.104499

> <PUBCHEM_MOLECULAR_FORMULA>
C14H18N8OS2

> <PUBCHEM_MOLECULAR_WEIGHT>
378.47572

> <PUBCHEM_OPENEYE_CAN_SMILES>
C1COCCN1C2=NN=C(S2)SCCCN3C=NC4=C3N=CN=C4N

> <PUBCHEM_OPENEYE_ISO_SMILES>
C1COCCN1C2=NN=C(S2)SCCCN3C=NC4=C3N=CN=C4N

> <PUBCHEM_CACTVS_TPSA>
161

> <PUBCHEM_MONOISOTOPIC_WEIGHT>
378.104499

> <PUBCHEM_TOTAL_CHARGE>
0

> <PUBCHEM_HEAVY_ATOM_COUNT>
25

> <PUBCHEM_ATOM_DEF_STEREO_COUNT>
0

> <PUBCHEM_ATOM_UDEF_STEREO_COUNT>
0

> <PUBCHEM_BOND_DEF_STEREO_COUNT>
0

> <PUBCHEM_BOND_UDEF_STEREO_COUNT>
0

> <PUBCHEM_ISOTOPIC_ATOM_COUNT>
0

> <PUBCHEM_COMPONENT_COUNT>
1

> <PUBCHEM_CACTVS_TAUTO_COUNT>
3

> <PUBCHEM_COORDINATE_TYPE>
1
5
255

> <PUBCHEM_BONDANNOTATIONS>
1  18  8
1  23  8
10  24  8
10  25  8
20  21  8
21  24  8
5  20  8
5  22  8
6  18  8
6  9  8
7  21  8
7  22  8
8  20  8
8  25  8
9  23  8

$$$$
56403016
  -OEChem-11301218092D

 53 57  0     0  0  0  0  0  0999 V2000
    7.2566    1.9573    0.0000 S   0  0  0  0  0  0  0  0  0  0  0  0
    6.9809    0.1968    0.0000 S   0  0  0  0  0  0  0  0  0  0  0  0
    9.9444   -4.5308    0.0000 O   0  0  0  0  0  0  0  0  0  0  0  0
    4.6783    4.2708    0.0000 N   0  0  0  0  0  0  0  0  0  0  0  0
    4.6783    5.8803    0.0000 N   0  0  0  0  0  0  0  0  0  0  0  0
    2.8660    4.0755    0.0000 N   0  0  0  0  0  0  0  0  0  0  0  0
    2.0000    5.5755    0.0000 N   0  0  0  0  0  0  0  0  0  0  0  0
    2.8660    7.0755    0.0000 N   0  0  0  0  0  0  0  0  0  0  0  0
    7.2627   -1.5628    0.0000 N   0  0  0  0  0  0  0  0  0  0  0  0
    8.5189    0.6994    0.0000 N   0  0  0  0  0  0  0  0  0  0  0  0
    8.5206   -0.3006    0.0000 N   0  0  0  0  0  0  0  0  0  0  0  0
    4.9889    3.3203    0.0000 C   0  0  0  0  0  0  0  0  0  0  0  0
    5.9674    3.1141    0.0000 C   0  0  0  0  0  0  0  0  0  0  0  0
    3.7320    4.5755    0.0000 C   0  0  0  0  0  0  0  0  0  0  0  0
    6.2781    2.1635    0.0000 C   0  0  0  0  0  0  0  0  0  0  0  0
    3.7320    5.5755    0.0000 C   0  0  0  0  0  0  0  0  0  0  0  0
    5.2619    5.0755    0.0000 C   0  0  0  0  0  0  0  0  0  0  0  0
    2.8660    6.0755    0.0000 C   0  0  0  0  0  0  0  0  0  0  0  0
    2.0000    4.5755    0.0000 C   0  0  0  0  0  0  0  0  0  0  0  0
    7.5673    1.0068    0.0000 C   0  0  0  0  0  0  0  0  0  0  0  0
    7.9331   -2.3048    0.0000 C   0  0  0  0  0  0  0  0  0  0  0  0
    7.5701   -0.6112    0.0000 C   0  0  0  0  0  0  0  0  0  0  0  0
    9.2739   -3.7888    0.0000 C   0  0  0  0  0  0  0  0  0  0  0  0
    8.9109   -2.0952    0.0000 C   0  0  0  0  0  0  0  0  0  0  0  0
    7.6257   -3.2564    0.0000 C   0  0  0  0  0  0  0  0  0  0  0  0
    9.5813   -2.8372    0.0000 C   0  0  0  0  0  0  0  0  0  0  0  0
    8.2962   -3.9984    0.0000 C   0  0  0  0  0  0  0  0  0  0  0  0
    9.6370   -5.4824    0.0000 C   0  0  0  0  0  0  0  0  0  0  0  0
   10.3074   -6.2243    0.0000 C   0  0  0  0  0  0  0  0  0  0  0  0
    8.6592   -5.6920    0.0000 C   0  0  0  0  0  0  0  0  0  0  0  0
   10.0000   -7.1759    0.0000 C   0  0  0  0  0  0  0  0  0  0  0  0
    8.3518   -6.6436    0.0000 C   0  0  0  0  0  0  0  0  0  0  0  0
    9.0222   -7.3855    0.0000 C   0  0  0  0  0  0  0  0  0  0  0  0
    4.3751    3.2329    0.0000 H   0  0  0  0  0  0  0  0  0  0  0  0
    4.9684    2.7006    0.0000 H   0  0  0  0  0  0  0  0  0  0  0  0
    6.5812    3.2014    0.0000 H   0  0  0  0  0  0  0  0  0  0  0  0
    5.9880    3.7337    0.0000 H   0  0  0  0  0  0  0  0  0  0  0  0
    5.6643    2.0762    0.0000 H   0  0  0  0  0  0  0  0  0  0  0  0
    6.2575    1.5439    0.0000 H   0  0  0  0  0  0  0  0  0  0  0  0
    5.8819    5.0755    0.0000 H   0  0  0  0  0  0  0  0  0  0  0  0
    1.4631    4.2655    0.0000 H   0  0  0  0  0  0  0  0  0  0  0  0
    2.3291    7.3855    0.0000 H   0  0  0  0  0  0  0  0  0  0  0  0
    3.4030    7.3855    0.0000 H   0  0  0  0  0  0  0  0  0  0  0  0
    6.6565   -1.6928    0.0000 H   0  0  0  0  0  0  0  0  0  0  0  0
    9.1015   -1.5052    0.0000 H   0  0  0  0  0  0  0  0  0  0  0  0
    7.0195   -3.3864    0.0000 H   0  0  0  0  0  0  0  0  0  0  0  0
   10.1875   -2.7072    0.0000 H   0  0  0  0  0  0  0  0  0  0  0  0
    8.1056   -4.5884    0.0000 H   0  0  0  0  0  0  0  0  0  0  0  0
   10.9136   -6.0944    0.0000 H   0  0  0  0  0  0  0  0  0  0  0  0
    8.2436   -5.2319    0.0000 H   0  0  0  0  0  0  0  0  0  0  0  0
   10.4157   -7.6360    0.0000 H   0  0  0  0  0  0  0  0  0  0  0  0
    7.7456   -6.7735    0.0000 H   0  0  0  0  0  0  0  0  0  0  0  0
    8.8317   -7.9755    0.0000 H   0  0  0  0  0  0  0  0  0  0  0  0
  1 15  1  0  0  0  0
  1 20  1  0  0  0  0
  2 20  1  0  0  0  0
  2 22  1  0  0  0  0
  3 23  1  0  0  0  0
  3 28  1  0  0  0  0
  4 12  1  0  0  0  0
  4 14  1  0  0  0  0
  4 17  1  0  0  0  0
  5 16  1  0  0  0  0
  5 17  2  0  0  0  0
  6 14  2  0  0  0  0
  6 19  1  0  0  0  0
  7 18  1  0  0  0  0
  7 19  2  0  0  0  0
  8 18  1  0  0  0  0
  8 42  1  0  0  0  0
  8 43  1  0  0  0  0
  9 21  1  0  0  0  0
  9 22  1  0  0  0  0
  9 44  1  0  0  0  0
 10 11  1  0  0  0  0
 10 20  2  0  0  0  0
 11 22  2  0  0  0  0
 12 13  1  0  0  0  0
 12 34  1  0  0  0  0
 12 35  1  0  0  0  0
 13 15  1  0  0  0  0
 13 36  1  0  0  0  0
 13 37  1  0  0  0  0
 14 16  1  0  0  0  0
 15 38  1  0  0  0  0
 15 39  1  0  0  0  0
 16 18  2  0  0  0  0
 17 40  1  0  0  0  0
 19 41  1  0  0  0  0
 21 24  2  0  0  0  0
 21 25  1  0  0  0  0
 23 26  2  0  0  0  0
 23 27  1  0  0  0  0
 24 26  1  0  0  0  0
 24 45  1  0  0  0  0
 25 27  2  0  0  0  0
 25 46  1  0  0  0  0
 26 47  1  0  0  0  0
 27 48  1  0  0  0  0
 28 29  2  0  0  0  0
 28 30  1  0  0  0  0
 29 31  1  0  0  0  0
 29 49  1  0  0  0  0
 30 32  2  0  0  0  0
 30 50  1  0  0  0  0
 31 33  2  0  0  0  0
 31 51  1  0  0  0  0
 32 33  1  0  0  0  0
 32 52  1  0  0  0  0
 33 53  1  0  0  0  0
M  END
> <PUBCHEM_COMPOUND_CID>
56403016

> <PUBCHEM_COMPOUND_CANONICALIZED>
1

> <PUBCHEM_CACTVS_COMPLEXITY>
593

> <PUBCHEM_CACTVS_HBOND_ACCEPTOR>
10

> <PUBCHEM_CACTVS_HBOND_DONOR>
2

> <PUBCHEM_CACTVS_ROTATABLE_BOND>
9

> <PUBCHEM_CACTVS_SUBSKEYS>
AAADceB74ABgAAAAAAAAAAAAAAAAAWLAAAA8YIAAAAAAAFgB/gAAHgQYAAAACAzF1wS19r/MFAimASZjZACSiS9xMrkN2CAufJiMbiLk+duWPCj80BPI6CewQAAAAEAAAAAAAAAAgAAAAAAAAAAAAAAAAA==

> <PUBCHEM_IUPAC_OPENEYE_NAME>
5-[3-(6-aminopurin-9-yl)propylsulfanyl]-N-(4-phenoxyphenyl)-1,3,4-thiadiazol-2-amine

> <PUBCHEM_IUPAC_CAS_NAME>
5-[3-(6-aminopurin-9-yl)propylthio]-N-(4-phenoxyphenyl)-1,3,4-thiadiazol-2-amine

> <PUBCHEM_IUPAC_NAME>
5-[3-(6-aminopurin-9-yl)propylsulfanyl]-N-(4-phenoxyphenyl)-1,3,4-thiadiazol-2-amine

> <PUBCHEM_IUPAC_SYSTEMATIC_NAME>
5-[3-(6-aminopurin-9-yl)propylsulfanyl]-N-(4-phenoxyphenyl)-1,3,4-thiadiazol-2-amine

> <PUBCHEM_IUPAC_TRADITIONAL_NAME>
[5-(3-adenin-9-ylpropylthio)-1,3,4-thiadiazol-2-yl]-(4-phenoxyphenyl)amine

> <PUBCHEM_IUPAC_INCHI>
InChI=1S/C22H20N8OS2/c23-19-18-20(25-13-24-19)30(14-26-18)11-4-12-32-22-29-28-21(33-22)27-15-7-9-17(10-8-15)31-16-5-2-1-3-6-16/h1-3,5-10,13-14H,4,11-12H2,(H,27,28)(H2,23,24,25)

> <PUBCHEM_IUPAC_INCHIKEY>
UVMMKURGCNUWHN-UHFFFAOYSA-N

> <PUBCHEM_XLOGP3>
4.6

> <PUBCHEM_EXACT_MASS>
476.120149

> <PUBCHEM_MOLECULAR_FORMULA>
C22H20N8OS2

> <PUBCHEM_MOLECULAR_WEIGHT>
476.5772

> <PUBCHEM_OPENEYE_CAN_SMILES>
C1=CC=C(C=C1)OC2=CC=C(C=C2)NC3=NN=C(S3)SCCCN4C=NC5=C4N=CN=C5N

> <PUBCHEM_OPENEYE_ISO_SMILES>
C1=CC=C(C=C1)OC2=CC=C(C=C2)NC3=NN=C(S3)SCCCN4C=NC5=C4N=CN=C5N

> <PUBCHEM_CACTVS_TPSA>
170

> <PUBCHEM_MONOISOTOPIC_WEIGHT>
476.120149

> <PUBCHEM_TOTAL_CHARGE>
0

> <PUBCHEM_HEAVY_ATOM_COUNT>
33

> <PUBCHEM_ATOM_DEF_STEREO_COUNT>
0

> <PUBCHEM_ATOM_UDEF_STEREO_COUNT>
0

> <PUBCHEM_BOND_DEF_STEREO_COUNT>
0

> <PUBCHEM_BOND_UDEF_STEREO_COUNT>
0

> <PUBCHEM_ISOTOPIC_ATOM_COUNT>
0

> <PUBCHEM_COMPONENT_COUNT>
1

> <PUBCHEM_CACTVS_TAUTO_COUNT>
6

> <PUBCHEM_COORDINATE_TYPE>
1
5
255

> <PUBCHEM_BONDANNOTATIONS>
10  11  8
10  20  8
11  22  8
14  16  8
16  18  8
2  20  8
2  22  8
21  24  8
21  25  8
23  26  8
23  27  8
24  26  8
25  27  8
28  29  8
28  30  8
29  31  8
30  32  8
31  33  8
32  33  8
4  14  8
4  17  8
5  16  8
5  17  8
6  14  8
6  19  8
7  18  8
7  19  8

$$$$
