17010537
  -OEChem-11301217212D

 31 33  0     0  0  0  0  0  0999 V2000
    4.6783    1.4067    0.0000 N   0  0  0  0  0  0  0  0  0  0  0  0
    4.6783   -0.2027    0.0000 N   0  0  0  0  0  0  0  0  0  0  0  0
    6.2619    0.6020    0.0000 C   0  0  0  0  0  0  0  0  0  0  0  0
    5.2619    0.6020    0.0000 C   0  0  0  0  0  0  0  0  0  0  0  0
    6.7619   -0.2640    0.0000 C   0  0  0  0  0  0  0  0  0  0  0  0
    3.7320    1.1020    0.0000 C   0  0  0  0  0  0  0  0  0  0  0  0
    3.7320    0.1020    0.0000 C   0  0  0  0  0  0  0  0  0  0  0  0
    6.2619   -1.1300    0.0000 C   0  0  0  0  0  0  0  0  0  0  0  0
    7.7619   -0.2640    0.0000 C   0  0  0  0  0  0  0  0  0  0  0  0
    2.8660    1.6020    0.0000 C   0  0  0  0  0  0  0  0  0  0  0  0
    6.7619   -1.9961    0.0000 C   0  0  0  0  0  0  0  0  0  0  0  0
    2.8660   -0.3980    0.0000 C   0  0  0  0  0  0  0  0  0  0  0  0
    5.2619   -1.1300    0.0000 C   0  0  0  0  0  0  0  0  0  0  0  0
    8.2619   -1.1300    0.0000 C   0  0  0  0  0  0  0  0  0  0  0  0
    7.7619   -1.9961    0.0000 C   0  0  0  0  0  0  0  0  0  0  0  0
    2.0000    1.1020    0.0000 C   0  0  0  0  0  0  0  0  0  0  0  0
    2.0000    0.1020    0.0000 C   0  0  0  0  0  0  0  0  0  0  0  0
    6.8445    0.8141    0.0000 H   0  0  0  0  0  0  0  0  0  0  0  0
    6.1542    1.2126    0.0000 H   0  0  0  0  0  0  0  0  0  0  0  0
    4.8709    1.9961    0.0000 H   0  0  0  0  0  0  0  0  0  0  0  0
    8.0719    0.2729    0.0000 H   0  0  0  0  0  0  0  0  0  0  0  0
    2.8660    2.2220    0.0000 H   0  0  0  0  0  0  0  0  0  0  0  0
    6.4519   -2.5330    0.0000 H   0  0  0  0  0  0  0  0  0  0  0  0
    2.8660   -1.0180    0.0000 H   0  0  0  0  0  0  0  0  0  0  0  0
    5.2619   -0.5100    0.0000 H   0  0  0  0  0  0  0  0  0  0  0  0
    4.6419   -1.1300    0.0000 H   0  0  0  0  0  0  0  0  0  0  0  0
    5.2619   -1.7500    0.0000 H   0  0  0  0  0  0  0  0  0  0  0  0
    8.8819   -1.1300    0.0000 H   0  0  0  0  0  0  0  0  0  0  0  0
    8.0719   -2.5330    0.0000 H   0  0  0  0  0  0  0  0  0  0  0  0
    1.4631    1.4120    0.0000 H   0  0  0  0  0  0  0  0  0  0  0  0
    1.4631   -0.2080    0.0000 H   0  0  0  0  0  0  0  0  0  0  0  0
  1  4  1  0  0  0  0
  1  6  1  0  0  0  0
  1 20  1  0  0  0  0
  2  4  2  0  0  0  0
  2  7  1  0  0  0  0
  3  4  1  0  0  0  0
  3  5  1  0  0  0  0
  3 18  1  0  0  0  0
  3 19  1  0  0  0  0
  5  8  1  0  0  0  0
  5  9  2  0  0  0  0
  6  7  1  0  0  0  0
  6 10  2  0  0  0  0
  7 12  2  0  0  0  0
  8 11  2  0  0  0  0
  8 13  1  0  0  0  0
  9 14  1  0  0  0  0
  9 21  1  0  0  0  0
 10 16  1  0  0  0  0
 10 22  1  0  0  0  0
 11 15  1  0  0  0  0
 11 23  1  0  0  0  0
 12 17  1  0  0  0  0
 12 24  1  0  0  0  0
 13 25  1  0  0  0  0
 13 26  1  0  0  0  0
 13 27  1  0  0  0  0
 14 15  2  0  0  0  0
 14 28  1  0  0  0  0
 15 29  1  0  0  0  0
 16 17  2  0  0  0  0
 16 30  1  0  0  0  0
 17 31  1  0  0  0  0
M  END
> <PUBCHEM_COMPOUND_CID>
17010537

> <PUBCHEM_COMPOUND_CANONICALIZED>
1

> <PUBCHEM_CACTVS_COMPLEXITY>
253

> <PUBCHEM_CACTVS_HBOND_ACCEPTOR>
1

> <PUBCHEM_CACTVS_HBOND_DONOR>
1

> <PUBCHEM_CACTVS_ROTATABLE_BOND>
2

> <PUBCHEM_CACTVS_SUBSKEYS>
AAADccBzAAAAAAAAAAAAAAAAAAAAAWAAAAAwYAAAAAAAAFgB9AAAHAAQAAAADAiBHwAz0LbJkACgAyZiZACCgC2hEqAJmSAwdJiIaKLAmZGUIAhokALIyCcQgIAOgAAAAAAQACAAAAAAACAAQAAAAAAAAA==

> <PUBCHEM_IUPAC_OPENEYE_NAME>
2-(o-tolylmethyl)-1H-benzimidazole

> <PUBCHEM_IUPAC_CAS_NAME>
2-[(2-methylphenyl)methyl]-1H-benzimidazole

> <PUBCHEM_IUPAC_NAME>
2-[(2-methylphenyl)methyl]-1H-benzimidazole

> <PUBCHEM_IUPAC_SYSTEMATIC_NAME>
2-[(2-methylphenyl)methyl]-1H-benzimidazole

> <PUBCHEM_IUPAC_TRADITIONAL_NAME>
2-(2-methylbenzyl)-1H-benzimidazole

> <PUBCHEM_IUPAC_INCHI>
InChI=1S/C15H14N2/c1-11-6-2-3-7-12(11)10-15-16-13-8-4-5-9-14(13)17-15/h2-9H,10H2,1H3,(H,16,17)

> <PUBCHEM_IUPAC_INCHIKEY>
WNEAIKGZNMMIPC-UHFFFAOYSA-N

> <PUBCHEM_XLOGP3>
3.6

> <PUBCHEM_EXACT_MASS>
222.115698

> <PUBCHEM_MOLECULAR_FORMULA>
C15H14N2

> <PUBCHEM_MOLECULAR_WEIGHT>
222.28506

> <PUBCHEM_OPENEYE_CAN_SMILES>
CC1=CC=CC=C1CC2=NC3=CC=CC=C3N2

> <PUBCHEM_OPENEYE_ISO_SMILES>
CC1=CC=CC=C1CC2=NC3=CC=CC=C3N2

> <PUBCHEM_CACTVS_TPSA>
28.7

> <PUBCHEM_MONOISOTOPIC_WEIGHT>
222.115698

> <PUBCHEM_TOTAL_CHARGE>
0

> <PUBCHEM_HEAVY_ATOM_COUNT>
17

> <PUBCHEM_ATOM_DEF_STEREO_COUNT>
0

> <PUBCHEM_ATOM_UDEF_STEREO_COUNT>
0

> <PUBCHEM_BOND_DEF_STEREO_COUNT>
0

> <PUBCHEM_BOND_UDEF_STEREO_COUNT>
0

> <PUBCHEM_ISOTOPIC_ATOM_COUNT>
0

> <PUBCHEM_COMPONENT_COUNT>
1

> <PUBCHEM_CACTVS_TAUTO_COUNT>
1

> <PUBCHEM_COORDINATE_TYPE>
1
5
255

> <PUBCHEM_BONDANNOTATIONS>
1  4  8
1  6  8
10  16  8
11  15  8
12  17  8
14  15  8
16  17  8
2  4  8
2  7  8
5  8  8
5  9  8
6  10  8
6  7  8
7  12  8
8  11  8
9  14  8

$$$$
17010538
  -OEChem-11301217212D

 28 30  0     0  0  0  0  0  0999 V2000
    5.2619   -1.1300    0.0000 Cl  0  0  0  0  0  0  0  0  0  0  0  0
    4.6783    1.4067    0.0000 N   0  0  0  0  0  0  0  0  0  0  0  0
    4.6783   -0.2027    0.0000 N   0  0  0  0  0  0  0  0  0  0  0  0
    6.2619    0.6020    0.0000 C   0  0  0  0  0  0  0  0  0  0  0  0
    5.2619    0.6020    0.0000 C   0  0  0  0  0  0  0  0  0  0  0  0
    3.7320    1.1020    0.0000 C   0  0  0  0  0  0  0  0  0  0  0  0
    3.7320    0.1020    0.0000 C   0  0  0  0  0  0  0  0  0  0  0  0
    6.7619   -0.2640    0.0000 C   0  0  0  0  0  0  0  0  0  0  0  0
    2.8660    1.6020    0.0000 C   0  0  0  0  0  0  0  0  0  0  0  0
    2.8660   -0.3980    0.0000 C   0  0  0  0  0  0  0  0  0  0  0  0
    6.2619   -1.1300    0.0000 C   0  0  0  0  0  0  0  0  0  0  0  0
    7.7619   -0.2640    0.0000 C   0  0  0  0  0  0  0  0  0  0  0  0
    2.0000    1.1020    0.0000 C   0  0  0  0  0  0  0  0  0  0  0  0
    2.0000    0.1020    0.0000 C   0  0  0  0  0  0  0  0  0  0  0  0
    6.7619   -1.9961    0.0000 C   0  0  0  0  0  0  0  0  0  0  0  0
    8.2619   -1.1300    0.0000 C   0  0  0  0  0  0  0  0  0  0  0  0
    7.7619   -1.9961    0.0000 C   0  0  0  0  0  0  0  0  0  0  0  0
    6.8445    0.8141    0.0000 H   0  0  0  0  0  0  0  0  0  0  0  0
    6.1542    1.2126    0.0000 H   0  0  0  0  0  0  0  0  0  0  0  0
    4.8709    1.9961    0.0000 H   0  0  0  0  0  0  0  0  0  0  0  0
    2.8660    2.2220    0.0000 H   0  0  0  0  0  0  0  0  0  0  0  0
    2.8660   -1.0180    0.0000 H   0  0  0  0  0  0  0  0  0  0  0  0
    8.0719    0.2729    0.0000 H   0  0  0  0  0  0  0  0  0  0  0  0
    1.4631    1.4120    0.0000 H   0  0  0  0  0  0  0  0  0  0  0  0
    1.4631   -0.2080    0.0000 H   0  0  0  0  0  0  0  0  0  0  0  0
    6.4519   -2.5330    0.0000 H   0  0  0  0  0  0  0  0  0  0  0  0
    8.8819   -1.1300    0.0000 H   0  0  0  0  0  0  0  0  0  0  0  0
    8.0719   -2.5330    0.0000 H   0  0  0  0  0  0  0  0  0  0  0  0
  1 11  1  0  0  0  0
  2  5  1  0  0  0  0
  2  6  1  0  0  0  0
  2 20  1  0  0  0  0
  3  5  2  0  0  0  0
  3  7  1  0  0  0  0
  4  5  1  0  0  0  0
  4  8  1  0  0  0  0
  4 18  1  0  0  0  0
  4 19  1  0  0  0  0
  6  7  1  0  0  0  0
  6  9  2  0  0  0  0
  7 10  2  0  0  0  0
  8 11  1  0  0  0  0
  8 12  2  0  0  0  0
  9 13  1  0  0  0  0
  9 21  1  0  0  0  0
 10 14  1  0  0  0  0
 10 22  1  0  0  0  0
 11 15  2  0  0  0  0
 12 16  1  0  0  0  0
 12 23  1  0  0  0  0
 13 14  2  0  0  0  0
 13 24  1  0  0  0  0
 14 25  1  0  0  0  0
 15 17  1  0  0  0  0
 15 26  1  0  0  0  0
 16 17  2  0  0  0  0
 16 27  1  0  0  0  0
 17 28  1  0  0  0  0
M  END
> <PUBCHEM_COMPOUND_CID>
17010538

> <PUBCHEM_COMPOUND_CANONICALIZED>
1

> <PUBCHEM_CACTVS_COMPLEXITY>
259

> <PUBCHEM_CACTVS_HBOND_ACCEPTOR>
1

> <PUBCHEM_CACTVS_HBOND_DONOR>
1

> <PUBCHEM_CACTVS_ROTATABLE_BOND>
2

> <PUBCHEM_CACTVS_SUBSKEYS>
AAADccBzAAAEAAAAAAAAAAAAAAAAAWAAAAAwYAAAAAAAAFgB9AAAHAIQAAAADAqBHyAx0LbJkACgAyZiZACCgC2hF6AJmSAwdpiIaKLBm5GUIAhokALIyCcQgIAOAAAAAAABACAAAAAAAAIAQAAAAAAAAA==

> <PUBCHEM_IUPAC_OPENEYE_NAME>
2-[(2-chlorophenyl)methyl]-1H-benzimidazole

> <PUBCHEM_IUPAC_CAS_NAME>
2-[(2-chlorophenyl)methyl]-1H-benzimidazole

> <PUBCHEM_IUPAC_NAME>
2-[(2-chlorophenyl)methyl]-1H-benzimidazole

> <PUBCHEM_IUPAC_SYSTEMATIC_NAME>
2-[(2-chlorophenyl)methyl]-1H-benzimidazole

> <PUBCHEM_IUPAC_TRADITIONAL_NAME>
2-(2-chlorobenzyl)-1H-benzimidazole

> <PUBCHEM_IUPAC_INCHI>
InChI=1S/C14H11ClN2/c15-11-6-2-1-5-10(11)9-14-16-12-7-3-4-8-13(12)17-14/h1-8H,9H2,(H,16,17)

> <PUBCHEM_IUPAC_INCHIKEY>
XYDPQCXIGVLALP-UHFFFAOYSA-N

> <PUBCHEM_XLOGP3>
3.9

> <PUBCHEM_EXACT_MASS>
242.061076

> <PUBCHEM_MOLECULAR_FORMULA>
C14H11ClN2

> <PUBCHEM_MOLECULAR_WEIGHT>
242.70354

> <PUBCHEM_OPENEYE_CAN_SMILES>
C1=CC=C(C(=C1)CC2=NC3=CC=CC=C3N2)Cl

> <PUBCHEM_OPENEYE_ISO_SMILES>
C1=CC=C(C(=C1)CC2=NC3=CC=CC=C3N2)Cl

> <PUBCHEM_CACTVS_TPSA>
28.7

> <PUBCHEM_MONOISOTOPIC_WEIGHT>
242.061076

> <PUBCHEM_TOTAL_CHARGE>
0

> <PUBCHEM_HEAVY_ATOM_COUNT>
17

> <PUBCHEM_ATOM_DEF_STEREO_COUNT>
0

> <PUBCHEM_ATOM_UDEF_STEREO_COUNT>
0

> <PUBCHEM_BOND_DEF_STEREO_COUNT>
0

> <PUBCHEM_BOND_UDEF_STEREO_COUNT>
0

> <PUBCHEM_ISOTOPIC_ATOM_COUNT>
0

> <PUBCHEM_COMPONENT_COUNT>
1

> <PUBCHEM_CACTVS_TAUTO_COUNT>
1

> <PUBCHEM_COORDINATE_TYPE>
1
5
255

> <PUBCHEM_BONDANNOTATIONS>
10  14  8
11  15  8
12  16  8
13  14  8
15  17  8
16  17  8
2  5  8
2  6  8
3  5  8
3  7  8
6  7  8
6  9  8
7  10  8
8  11  8
8  12  8
9  13  8

$$$$
17010591
  -OEChem-11301217212D

 31 33  0     0  0  0  0  0  0999 V2000
    4.6783    0.9737    0.0000 N   0  0  0  0  0  0  0  0  0  0  0  0
    4.6783   -0.6357    0.0000 N   0  0  0  0  0  0  0  0  0  0  0  0
    6.2619    0.1690    0.0000 C   0  0  0  0  0  0  0  0  0  0  0  0
    5.2619    0.1690    0.0000 C   0  0  0  0  0  0  0  0  0  0  0  0
    6.7619   -0.6970    0.0000 C   0  0  0  0  0  0  0  0  0  0  0  0
    3.7320    0.6690    0.0000 C   0  0  0  0  0  0  0  0  0  0  0  0
    3.7320   -0.3310    0.0000 C   0  0  0  0  0  0  0  0  0  0  0  0
    6.7619    1.0350    0.0000 C   0  0  0  0  0  0  0  0  0  0  0  0
    7.7619   -0.6970    0.0000 C   0  0  0  0  0  0  0  0  0  0  0  0
    8.2619    0.1690    0.0000 C   0  0  0  0  0  0  0  0  0  0  0  0
    7.7619    1.0350    0.0000 C   0  0  0  0  0  0  0  0  0  0  0  0
    6.2619   -1.5630    0.0000 C   0  0  0  0  0  0  0  0  0  0  0  0
    2.8660    1.1690    0.0000 C   0  0  0  0  0  0  0  0  0  0  0  0
    2.8660   -0.8310    0.0000 C   0  0  0  0  0  0  0  0  0  0  0  0
    9.2619    0.1690    0.0000 C   0  0  0  0  0  0  0  0  0  0  0  0
    2.0000    0.6690    0.0000 C   0  0  0  0  0  0  0  0  0  0  0  0
    2.0000   -0.3310    0.0000 C   0  0  0  0  0  0  0  0  0  0  0  0
    4.8709    1.5630    0.0000 H   0  0  0  0  0  0  0  0  0  0  0  0
    6.4519    1.5720    0.0000 H   0  0  0  0  0  0  0  0  0  0  0  0
    8.0719   -1.2340    0.0000 H   0  0  0  0  0  0  0  0  0  0  0  0
    8.0719    1.5720    0.0000 H   0  0  0  0  0  0  0  0  0  0  0  0
    5.7249   -1.2530    0.0000 H   0  0  0  0  0  0  0  0  0  0  0  0
    5.9519   -2.1000    0.0000 H   0  0  0  0  0  0  0  0  0  0  0  0
    6.7988   -1.8730    0.0000 H   0  0  0  0  0  0  0  0  0  0  0  0
    2.8660    1.7890    0.0000 H   0  0  0  0  0  0  0  0  0  0  0  0
    2.8660   -1.4510    0.0000 H   0  0  0  0  0  0  0  0  0  0  0  0
    9.2619   -0.4510    0.0000 H   0  0  0  0  0  0  0  0  0  0  0  0
    9.8819    0.1690    0.0000 H   0  0  0  0  0  0  0  0  0  0  0  0
    9.2619    0.7890    0.0000 H   0  0  0  0  0  0  0  0  0  0  0  0
    1.4631    0.9790    0.0000 H   0  0  0  0  0  0  0  0  0  0  0  0
    1.4631   -0.6410    0.0000 H   0  0  0  0  0  0  0  0  0  0  0  0
  1  4  1  0  0  0  0
  1  6  1  0  0  0  0
  1 18  1  0  0  0  0
  2  4  2  0  0  0  0
  2  7  1  0  0  0  0
  3  4  1  0  0  0  0
  3  5  2  0  0  0  0
  3  8  1  0  0  0  0
  5  9  1  0  0  0  0
  5 12  1  0  0  0  0
  6  7  1  0  0  0  0
  6 13  2  0  0  0  0
  7 14  2  0  0  0  0
  8 11  2  0  0  0  0
  8 19  1  0  0  0  0
  9 10  2  0  0  0  0
  9 20  1  0  0  0  0
 10 11  1  0  0  0  0
 10 15  1  0  0  0  0
 11 21  1  0  0  0  0
 12 22  1  0  0  0  0
 12 23  1  0  0  0  0
 12 24  1  0  0  0  0
 13 16  1  0  0  0  0
 13 25  1  0  0  0  0
 14 17  1  0  0  0  0
 14 26  1  0  0  0  0
 15 27  1  0  0  0  0
 15 28  1  0  0  0  0
 15 29  1  0  0  0  0
 16 17  2  0  0  0  0
 16 30  1  0  0  0  0
 17 31  1  0  0  0  0
M  END
> <PUBCHEM_COMPOUND_CID>
17010591

> <PUBCHEM_COMPOUND_CANONICALIZED>
1

> <PUBCHEM_CACTVS_COMPLEXITY>
266

> <PUBCHEM_CACTVS_HBOND_ACCEPTOR>
1

> <PUBCHEM_CACTVS_HBOND_DONOR>
1

> <PUBCHEM_CACTVS_ROTATABLE_BOND>
1

> <PUBCHEM_CACTVS_SUBSKEYS>
AAADccBzAAAAAAAAAAAAAAAAAAAAAWAAAAAwYAAAAAAAAFgB9AAAHAAQAAAADAiBHwAz0LbJkACgAyZiZACCgC2hEqAJmSAwdJiIaKLAmZGUIAhokALIyCcQgMAOwAACAAAQACCAAAQAACAAQAAAAAAAAA==

> <PUBCHEM_IUPAC_OPENEYE_NAME>
2-(2,4-dimethylphenyl)-1H-benzimidazole

> <PUBCHEM_IUPAC_CAS_NAME>
2-(2,4-dimethylphenyl)-1H-benzimidazole

> <PUBCHEM_IUPAC_NAME>
2-(2,4-dimethylphenyl)-1H-benzimidazole

> <PUBCHEM_IUPAC_SYSTEMATIC_NAME>
2-(2,4-dimethylphenyl)-1H-benzimidazole

> <PUBCHEM_IUPAC_TRADITIONAL_NAME>
2-(2,4-dimethylphenyl)-1H-benzimidazole

> <PUBCHEM_IUPAC_INCHI>
InChI=1S/C15H14N2/c1-10-7-8-12(11(2)9-10)15-16-13-5-3-4-6-14(13)17-15/h3-9H,1-2H3,(H,16,17)

> <PUBCHEM_IUPAC_INCHIKEY>
CUCOVUNVUIJOCO-UHFFFAOYSA-N

> <PUBCHEM_XLOGP3>
4

> <PUBCHEM_EXACT_MASS>
222.115698

> <PUBCHEM_MOLECULAR_FORMULA>
C15H14N2

> <PUBCHEM_MOLECULAR_WEIGHT>
222.28506

> <PUBCHEM_OPENEYE_CAN_SMILES>
CC1=CC(=C(C=C1)C2=NC3=CC=CC=C3N2)C

> <PUBCHEM_OPENEYE_ISO_SMILES>
CC1=CC(=C(C=C1)C2=NC3=CC=CC=C3N2)C

> <PUBCHEM_CACTVS_TPSA>
28.7

> <PUBCHEM_MONOISOTOPIC_WEIGHT>
222.115698

> <PUBCHEM_TOTAL_CHARGE>
0

> <PUBCHEM_HEAVY_ATOM_COUNT>
17

> <PUBCHEM_ATOM_DEF_STEREO_COUNT>
0

> <PUBCHEM_ATOM_UDEF_STEREO_COUNT>
0

> <PUBCHEM_BOND_DEF_STEREO_COUNT>
0

> <PUBCHEM_BOND_UDEF_STEREO_COUNT>
0

> <PUBCHEM_ISOTOPIC_ATOM_COUNT>
0

> <PUBCHEM_COMPONENT_COUNT>
1

> <PUBCHEM_CACTVS_TAUTO_COUNT>
1

> <PUBCHEM_COORDINATE_TYPE>
1
5
255

> <PUBCHEM_BONDANNOTATIONS>
1  4  8
1  6  8
10  11  8
13  16  8
14  17  8
16  17  8
2  4  8
2  7  8
3  5  8
3  8  8
5  9  8
6  13  8
6  7  8
7  14  8
8  11  8
9  10  8

$$$$
17012761
  -OEChem-11301217212D

 28 29  0     0  0  0  0  0  0999 V2000
    2.0000   -1.2694    0.0000 F   0  0  0  0  0  0  0  0  0  0  0  0
    5.4641   -1.2694    0.0000 F   0  0  0  0  0  0  0  0  0  0  0  0
    5.4641   -3.2694    0.0000 F   0  0  0  0  0  0  0  0  0  0  0  0
    2.0000   -3.2694    0.0000 F   0  0  0  0  0  0  0  0  0  0  0  0
    3.7320   -4.2694    0.0000 F   0  0  0  0  0  0  0  0  0  0  0  0
    3.7320   -0.2694    0.0000 O   0  0  0  0  0  0  0  0  0  0  0  0
    4.9641    4.2694    0.0000 O   0  0  0  0  0  0  0  0  0  0  0  0
    3.7320    1.7306    0.0000 O   0  0  0  0  0  0  0  0  0  0  0  0
    5.4641    1.7306    0.0000 N   0  0  0  0  0  0  0  0  0  0  0  0
    4.6551    3.3184    0.0000 N   0  0  0  0  0  0  0  0  0  0  0  0
    5.9641    4.2694    0.0000 N   0  0  0  0  0  0  0  0  0  0  0  0
    3.7320   -1.2694    0.0000 C   0  0  0  0  0  0  0  0  0  0  0  0
    4.5981    0.2306    0.0000 C   0  0  0  0  0  0  0  0  0  0  0  0
    2.8660   -1.7694    0.0000 C   0  0  0  0  0  0  0  0  0  0  0  0
    4.5981   -1.7694    0.0000 C   0  0  0  0  0  0  0  0  0  0  0  0
    4.5981    1.2306    0.0000 C   0  0  0  0  0  0  0  0  0  0  0  0
    4.5981   -2.7694    0.0000 C   0  0  0  0  0  0  0  0  0  0  0  0
    2.8660   -2.7694    0.0000 C   0  0  0  0  0  0  0  0  0  0  0  0
    5.4641    2.7306    0.0000 C   0  0  0  0  0  0  0  0  0  0  0  0
    3.7320   -3.2694    0.0000 C   0  0  0  0  0  0  0  0  0  0  0  0
    6.2731    3.3184    0.0000 C   0  0  0  0  0  0  0  0  0  0  0  0
    7.2242    3.0094    0.0000 C   0  0  0  0  0  0  0  0  0  0  0  0
    4.8101   -0.3520    0.0000 H   0  0  0  0  0  0  0  0  0  0  0  0
    5.2087    0.3382    0.0000 H   0  0  0  0  0  0  0  0  0  0  0  0
    6.0010    1.4206    0.0000 H   0  0  0  0  0  0  0  0  0  0  0  0
    7.0326    2.4197    0.0000 H   0  0  0  0  0  0  0  0  0  0  0  0
    7.8138    2.8178    0.0000 H   0  0  0  0  0  0  0  0  0  0  0  0
    7.4158    3.5990    0.0000 H   0  0  0  0  0  0  0  0  0  0  0  0
  1 14  1  0  0  0  0
  2 15  1  0  0  0  0
  3 17  1  0  0  0  0
  4 18  1  0  0  0  0
  5 20  1  0  0  0  0
  6 12  1  0  0  0  0
  6 13  1  0  0  0  0
  7 10  1  0  0  0  0
  7 11  1  0  0  0  0
  8 16  2  0  0  0  0
  9 16  1  0  0  0  0
  9 19  1  0  0  0  0
  9 25  1  0  0  0  0
 10 19  2  0  0  0  0
 11 21  2  0  0  0  0
 12 14  2  0  0  0  0
 12 15  1  0  0  0  0
 13 16  1  0  0  0  0
 13 23  1  0  0  0  0
 13 24  1  0  0  0  0
 14 18  1  0  0  0  0
 15 17  2  0  0  0  0
 17 20  1  0  0  0  0
 18 20  2  0  0  0  0
 19 21  1  0  0  0  0
 21 22  1  0  0  0  0
 22 26  1  0  0  0  0
 22 27  1  0  0  0  0
 22 28  1  0  0  0  0
M  END
> <PUBCHEM_COMPOUND_CID>
17012761

> <PUBCHEM_COMPOUND_CANONICALIZED>
1

> <PUBCHEM_CACTVS_COMPLEXITY>
391

> <PUBCHEM_CACTVS_HBOND_ACCEPTOR>
10

> <PUBCHEM_CACTVS_HBOND_DONOR>
1

> <PUBCHEM_CACTVS_ROTATABLE_BOND>
4

> <PUBCHEM_CACTVS_SUBSKEYS>
AAADcYBzMcAAAAAAAAAAAAAAAAAAAWAAAAAwAAAAAAAAAAABwAAAHwAUAAAACAyhlgoDtpLQBACpAQdwcgICCAQhMAAhmAB0WIqOZiLEOB6XOCCk1ZPYqAeAQAAAAAAAAAAAAAAAAAAAAAAAAAAAAAAAAA==

> <PUBCHEM_IUPAC_OPENEYE_NAME>
N-(4-methyl-1,2,5-oxadiazol-3-yl)-2-(2,3,4,5,6-pentafluorophenoxy)acetamide

> <PUBCHEM_IUPAC_CAS_NAME>
N-(4-methyl-1,2,5-oxadiazol-3-yl)-2-(2,3,4,5,6-pentafluorophenoxy)acetamide

> <PUBCHEM_IUPAC_NAME>
N-(4-methyl-1,2,5-oxadiazol-3-yl)-2-(2,3,4,5,6-pentafluorophenoxy)acetamide

> <PUBCHEM_IUPAC_SYSTEMATIC_NAME>
N-(4-methyl-1,2,5-oxadiazol-3-yl)-2-[2,3,4,5,6-pentakis(fluoranyl)phenoxy]ethanamide

> <PUBCHEM_IUPAC_TRADITIONAL_NAME>
N-(4-methylfurazan-3-yl)-2-(2,3,4,5,6-pentafluorophenoxy)acetamide

> <PUBCHEM_IUPAC_INCHI>
InChI=1S/C11H6F5N3O3/c1-3-11(19-22-18-3)17-4(20)2-21-10-8(15)6(13)5(12)7(14)9(10)16/h2H2,1H3,(H,17,19,20)

> <PUBCHEM_IUPAC_INCHIKEY>
JKLHPFQWKVCTLV-UHFFFAOYSA-N

> <PUBCHEM_XLOGP3>
2.4

> <PUBCHEM_EXACT_MASS>
323.032932

> <PUBCHEM_MOLECULAR_FORMULA>
C11H6F5N3O3

> <PUBCHEM_MOLECULAR_WEIGHT>
323.175656

> <PUBCHEM_OPENEYE_CAN_SMILES>
CC1=NON=C1NC(=O)COC2=C(C(=C(C(=C2F)F)F)F)F

> <PUBCHEM_OPENEYE_ISO_SMILES>
CC1=NON=C1NC(=O)COC2=C(C(=C(C(=C2F)F)F)F)F

> <PUBCHEM_CACTVS_TPSA>
77.2

> <PUBCHEM_MONOISOTOPIC_WEIGHT>
323.032932

> <PUBCHEM_TOTAL_CHARGE>
0

> <PUBCHEM_HEAVY_ATOM_COUNT>
22

> <PUBCHEM_ATOM_DEF_STEREO_COUNT>
0

> <PUBCHEM_ATOM_UDEF_STEREO_COUNT>
0

> <PUBCHEM_BOND_DEF_STEREO_COUNT>
0

> <PUBCHEM_BOND_UDEF_STEREO_COUNT>
0

> <PUBCHEM_ISOTOPIC_ATOM_COUNT>
0

> <PUBCHEM_COMPONENT_COUNT>
1

> <PUBCHEM_CACTVS_TAUTO_COUNT>
10

> <PUBCHEM_COORDINATE_TYPE>
1
5
255

> <PUBCHEM_BONDANNOTATIONS>
10  19  8
11  21  8
12  14  8
12  15  8
14  18  8
15  17  8
17  20  8
18  20  8
19  21  8
7  10  8
7  11  8

$$$$
