16581095
  -OEChem-11301217192D

 52 55  0     0  0  0  0  0  0999 V2000
    7.9244   -0.1724    0.0000 O   0  0  0  0  0  0  0  0  0  0  0  0
    7.5673    1.5224    0.0000 N   0  0  0  0  0  0  0  0  0  0  0  0
    4.6783   -3.3510    0.0000 N   0  0  0  0  0  0  0  0  0  0  0  0
    8.8564    2.6792    0.0000 C   0  0  0  0  0  0  0  0  0  0  0  0
    9.1671    3.6297    0.0000 C   0  0  0  0  0  0  0  0  0  0  0  0
    7.9059    2.9898    0.0000 C   0  0  0  0  0  0  0  0  0  0  0  0
    8.2166    3.9404    0.0000 C   0  0  0  0  0  0  0  0  0  0  0  0
    8.5458    1.7286    0.0000 C   0  0  0  0  0  0  0  0  0  0  0  0
    9.8070    2.3685    0.0000 C   0  0  0  0  0  0  0  0  0  0  0  0
   10.0132    1.3900    0.0000 C   0  0  0  0  0  0  0  0  0  0  0  0
   10.5513    3.0364    0.0000 C   0  0  0  0  0  0  0  0  0  0  0  0
    7.2566    0.5719    0.0000 C   0  0  0  0  0  0  0  0  0  0  0  0
   10.9637    1.0793    0.0000 C   0  0  0  0  0  0  0  0  0  0  0  0
   11.5018    2.7257    0.0000 C   0  0  0  0  0  0  0  0  0  0  0  0
    6.2781    0.3657    0.0000 C   0  0  0  0  0  0  0  0  0  0  0  0
   11.7080    1.7472    0.0000 C   0  0  0  0  0  0  0  0  0  0  0  0
    5.9674   -0.5848    0.0000 C   0  0  0  0  0  0  0  0  0  0  0  0
    4.9889   -0.7910    0.0000 C   0  0  0  0  0  0  0  0  0  0  0  0
    4.6783   -1.7416    0.0000 C   0  0  0  0  0  0  0  0  0  0  0  0
    3.7320   -2.0463    0.0000 C   0  0  0  0  0  0  0  0  0  0  0  0
    3.7320   -3.0463    0.0000 C   0  0  0  0  0  0  0  0  0  0  0  0
    5.2619   -2.5463    0.0000 C   0  0  0  0  0  0  0  0  0  0  0  0
    2.8660   -1.5463    0.0000 C   0  0  0  0  0  0  0  0  0  0  0  0
    2.8660   -3.5463    0.0000 C   0  0  0  0  0  0  0  0  0  0  0  0
    2.0000   -2.0463    0.0000 C   0  0  0  0  0  0  0  0  0  0  0  0
    2.0000   -3.0463    0.0000 C   0  0  0  0  0  0  0  0  0  0  0  0
    7.3166    3.1824    0.0000 H   0  0  0  0  0  0  0  0  0  0  0  0
    7.7133    2.4005    0.0000 H   0  0  0  0  0  0  0  0  0  0  0  0
    9.7564    3.4371    0.0000 H   0  0  0  0  0  0  0  0  0  0  0  0
    9.3597    4.2190    0.0000 H   0  0  0  0  0  0  0  0  0  0  0  0
    8.4092    4.5297    0.0000 H   0  0  0  0  0  0  0  0  0  0  0  0
    7.6273    4.1330    0.0000 H   0  0  0  0  0  0  0  0  0  0  0  0
    8.5663    1.1090    0.0000 H   0  0  0  0  0  0  0  0  0  0  0  0
    9.1596    1.6413    0.0000 H   0  0  0  0  0  0  0  0  0  0  0  0
    7.1532    1.9839    0.0000 H   0  0  0  0  0  0  0  0  0  0  0  0
    9.5517    0.9759    0.0000 H   0  0  0  0  0  0  0  0  0  0  0  0
   10.4234    3.6430    0.0000 H   0  0  0  0  0  0  0  0  0  0  0  0
   11.0916    0.4727    0.0000 H   0  0  0  0  0  0  0  0  0  0  0  0
   11.9632    3.1398    0.0000 H   0  0  0  0  0  0  0  0  0  0  0  0
    6.2575    0.9854    0.0000 H   0  0  0  0  0  0  0  0  0  0  0  0
    5.6643    0.4530    0.0000 H   0  0  0  0  0  0  0  0  0  0  0  0
   12.2973    1.5546    0.0000 H   0  0  0  0  0  0  0  0  0  0  0  0
    5.9880   -1.2045    0.0000 H   0  0  0  0  0  0  0  0  0  0  0  0
    6.5812   -0.6722    0.0000 H   0  0  0  0  0  0  0  0  0  0  0  0
    4.9684   -0.1714    0.0000 H   0  0  0  0  0  0  0  0  0  0  0  0
    4.3751   -0.7037    0.0000 H   0  0  0  0  0  0  0  0  0  0  0  0
    5.8819   -2.5463    0.0000 H   0  0  0  0  0  0  0  0  0  0  0  0
    4.8709   -3.9404    0.0000 H   0  0  0  0  0  0  0  0  0  0  0  0
    2.8660   -0.9263    0.0000 H   0  0  0  0  0  0  0  0  0  0  0  0
    2.8660   -4.1663    0.0000 H   0  0  0  0  0  0  0  0  0  0  0  0
    1.4631   -1.7363    0.0000 H   0  0  0  0  0  0  0  0  0  0  0  0
    1.4631   -3.3563    0.0000 H   0  0  0  0  0  0  0  0  0  0  0  0
  1 12  2  0  0  0  0
  2  8  1  0  0  0  0
  2 12  1  0  0  0  0
  2 35  1  0  0  0  0
  3 21  1  0  0  0  0
  3 22  1  0  0  0  0
  3 48  1  0  0  0  0
  4  5  1  0  0  0  0
  4  6  1  0  0  0  0
  4  8  1  0  0  0  0
  4  9  1  0  0  0  0
  5  7  1  0  0  0  0
  5 29  1  0  0  0  0
  5 30  1  0  0  0  0
  6  7  1  0  0  0  0
  6 27  1  0  0  0  0
  6 28  1  0  0  0  0
  7 31  1  0  0  0  0
  7 32  1  0  0  0  0
  8 33  1  0  0  0  0
  8 34  1  0  0  0  0
  9 10  2  0  0  0  0
  9 11  1  0  0  0  0
 10 13  1  0  0  0  0
 10 36  1  0  0  0  0
 11 14  2  0  0  0  0
 11 37  1  0  0  0  0
 12 15  1  0  0  0  0
 13 16  2  0  0  0  0
 13 38  1  0  0  0  0
 14 16  1  0  0  0  0
 14 39  1  0  0  0  0
 15 17  1  0  0  0  0
 15 40  1  0  0  0  0
 15 41  1  0  0  0  0
 16 42  1  0  0  0  0
 17 18  1  0  0  0  0
 17 43  1  0  0  0  0
 17 44  1  0  0  0  0
 18 19  1  0  0  0  0
 18 45  1  0  0  0  0
 18 46  1  0  0  0  0
 19 20  1  0  0  0  0
 19 22  2  0  0  0  0
 20 21  1  0  0  0  0
 20 23  2  0  0  0  0
 21 24  2  0  0  0  0
 22 47  1  0  0  0  0
 23 25  1  0  0  0  0
 23 49  1  0  0  0  0
 24 26  1  0  0  0  0
 24 50  1  0  0  0  0
 25 26  2  0  0  0  0
 25 51  1  0  0  0  0
 26 52  1  0  0  0  0
M  END
> <PUBCHEM_COMPOUND_CID>
16581095

> <PUBCHEM_COMPOUND_CANONICALIZED>
1

> <PUBCHEM_CACTVS_COMPLEXITY>
467

> <PUBCHEM_CACTVS_HBOND_ACCEPTOR>
1

> <PUBCHEM_CACTVS_HBOND_DONOR>
2

> <PUBCHEM_CACTVS_ROTATABLE_BOND>
7

> <PUBCHEM_CACTVS_SUBSKEYS>
AAADceB7IAAAAAAAAAAAAAAAAABgAWAAAAAwYAAAAAAAAFgB9AAAHgAQAAAADgjBngQ8wPLJkACoAzV3VACCgCAxAiAI2aE4ZJgIIPLAkZGEIAhglgDIyAcYiMCPgAAAAAACAAAAAAAAAAQAAAAAAAAAAA==

> <PUBCHEM_IUPAC_OPENEYE_NAME>
4-(1H-indol-3-yl)-N-[(1-phenylcyclobutyl)methyl]butanamide

> <PUBCHEM_IUPAC_CAS_NAME>
4-(1H-indol-3-yl)-N-[(1-phenylcyclobutyl)methyl]butanamide

> <PUBCHEM_IUPAC_NAME>
4-(1H-indol-3-yl)-N-[(1-phenylcyclobutyl)methyl]butanamide

> <PUBCHEM_IUPAC_SYSTEMATIC_NAME>
4-(1H-indol-3-yl)-N-[(1-phenylcyclobutyl)methyl]butanamide

> <PUBCHEM_IUPAC_TRADITIONAL_NAME>
4-(1H-indol-3-yl)-N-[(1-phenylcyclobutyl)methyl]butyramide

> <PUBCHEM_IUPAC_INCHI>
InChI=1S/C23H26N2O/c26-22(13-6-8-18-16-24-21-12-5-4-11-20(18)21)25-17-23(14-7-15-23)19-9-2-1-3-10-19/h1-5,9-12,16,24H,6-8,13-15,17H2,(H,25,26)

> <PUBCHEM_IUPAC_INCHIKEY>
BQDKNNBCXFJBAC-UHFFFAOYSA-N

> <PUBCHEM_XLOGP3>
4.8

> <PUBCHEM_EXACT_MASS>
346.204513

> <PUBCHEM_MOLECULAR_FORMULA>
C23H26N2O

> <PUBCHEM_MOLECULAR_WEIGHT>
346.46534

> <PUBCHEM_OPENEYE_CAN_SMILES>
C1CC(C1)(CNC(=O)CCCC2=CNC3=CC=CC=C32)C4=CC=CC=C4

> <PUBCHEM_OPENEYE_ISO_SMILES>
C1CC(C1)(CNC(=O)CCCC2=CNC3=CC=CC=C32)C4=CC=CC=C4

> <PUBCHEM_CACTVS_TPSA>
44.9

> <PUBCHEM_MONOISOTOPIC_WEIGHT>
346.204513

> <PUBCHEM_TOTAL_CHARGE>
0

> <PUBCHEM_HEAVY_ATOM_COUNT>
26

> <PUBCHEM_ATOM_DEF_STEREO_COUNT>
0

> <PUBCHEM_ATOM_UDEF_STEREO_COUNT>
0

> <PUBCHEM_BOND_DEF_STEREO_COUNT>
0

> <PUBCHEM_BOND_UDEF_STEREO_COUNT>
0

> <PUBCHEM_ISOTOPIC_ATOM_COUNT>
0

> <PUBCHEM_COMPONENT_COUNT>
1

> <PUBCHEM_CACTVS_TAUTO_COUNT>
2

> <PUBCHEM_COORDINATE_TYPE>
1
5
255

> <PUBCHEM_BONDANNOTATIONS>
10  13  8
11  14  8
13  16  8
14  16  8
19  20  8
19  22  8
20  21  8
20  23  8
21  24  8
23  25  8
24  26  8
25  26  8
3  21  8
3  22  8
9  10  8
9  11  8

$$$$
16582538
  -OEChem-11301217202D

 49 52  0     0  0  0  0  0  0999 V2000
    7.9244   -0.2233    0.0000 O   0  0  0  0  0  0  0  0  0  0  0  0
    7.5673    1.4715    0.0000 N   0  0  0  0  0  0  0  0  0  0  0  0
    4.6783   -3.4019    0.0000 N   0  0  0  0  0  0  0  0  0  0  0  0
    8.8564    2.6283    0.0000 C   0  0  0  0  0  0  0  0  0  0  0  0
    8.6502    3.6068    0.0000 C   0  0  0  0  0  0  0  0  0  0  0  0
    7.9059    2.9390    0.0000 C   0  0  0  0  0  0  0  0  0  0  0  0
    8.5458    1.6778    0.0000 C   0  0  0  0  0  0  0  0  0  0  0  0
    9.8349    2.8345    0.0000 C   0  0  0  0  0  0  0  0  0  0  0  0
   10.5028    2.0902    0.0000 C   0  0  0  0  0  0  0  0  0  0  0  0
   10.1456    3.7850    0.0000 C   0  0  0  0  0  0  0  0  0  0  0  0
    7.2566    0.5210    0.0000 C   0  0  0  0  0  0  0  0  0  0  0  0
   11.4813    2.2964    0.0000 C   0  0  0  0  0  0  0  0  0  0  0  0
   11.1241    3.9912    0.0000 C   0  0  0  0  0  0  0  0  0  0  0  0
    6.2781    0.3148    0.0000 C   0  0  0  0  0  0  0  0  0  0  0  0
   11.7920    3.2469    0.0000 C   0  0  0  0  0  0  0  0  0  0  0  0
    5.9674   -0.6357    0.0000 C   0  0  0  0  0  0  0  0  0  0  0  0
    4.9889   -0.8419    0.0000 C   0  0  0  0  0  0  0  0  0  0  0  0
    4.6783   -1.7924    0.0000 C   0  0  0  0  0  0  0  0  0  0  0  0
    3.7320   -2.0972    0.0000 C   0  0  0  0  0  0  0  0  0  0  0  0
    3.7320   -3.0972    0.0000 C   0  0  0  0  0  0  0  0  0  0  0  0
    5.2619   -2.5972    0.0000 C   0  0  0  0  0  0  0  0  0  0  0  0
    2.8660   -1.5972    0.0000 C   0  0  0  0  0  0  0  0  0  0  0  0
    2.8660   -3.5972    0.0000 C   0  0  0  0  0  0  0  0  0  0  0  0
    2.0000   -2.0972    0.0000 C   0  0  0  0  0  0  0  0  0  0  0  0
    2.0000   -3.0972    0.0000 C   0  0  0  0  0  0  0  0  0  0  0  0
    9.2255    3.8380    0.0000 H   0  0  0  0  0  0  0  0  0  0  0  0
    8.3226    4.1332    0.0000 H   0  0  0  0  0  0  0  0  0  0  0  0
    7.4180    3.3215    0.0000 H   0  0  0  0  0  0  0  0  0  0  0  0
    7.6139    2.3920    0.0000 H   0  0  0  0  0  0  0  0  0  0  0  0
    8.5663    1.0581    0.0000 H   0  0  0  0  0  0  0  0  0  0  0  0
    9.1596    1.5904    0.0000 H   0  0  0  0  0  0  0  0  0  0  0  0
    7.1532    1.9330    0.0000 H   0  0  0  0  0  0  0  0  0  0  0  0
   10.3102    1.5009    0.0000 H   0  0  0  0  0  0  0  0  0  0  0  0
    9.7315    4.2465    0.0000 H   0  0  0  0  0  0  0  0  0  0  0  0
   11.8954    1.8350    0.0000 H   0  0  0  0  0  0  0  0  0  0  0  0
   11.3167    4.5806    0.0000 H   0  0  0  0  0  0  0  0  0  0  0  0
    6.2575    0.9345    0.0000 H   0  0  0  0  0  0  0  0  0  0  0  0
    5.6643    0.4022    0.0000 H   0  0  0  0  0  0  0  0  0  0  0  0
   12.3986    3.3748    0.0000 H   0  0  0  0  0  0  0  0  0  0  0  0
    5.9880   -1.2554    0.0000 H   0  0  0  0  0  0  0  0  0  0  0  0
    6.5812   -0.7231    0.0000 H   0  0  0  0  0  0  0  0  0  0  0  0
    4.9684   -0.2223    0.0000 H   0  0  0  0  0  0  0  0  0  0  0  0
    4.3751   -0.7546    0.0000 H   0  0  0  0  0  0  0  0  0  0  0  0
    5.8819   -2.5972    0.0000 H   0  0  0  0  0  0  0  0  0  0  0  0
    4.8709   -3.9912    0.0000 H   0  0  0  0  0  0  0  0  0  0  0  0
    2.8660   -0.9772    0.0000 H   0  0  0  0  0  0  0  0  0  0  0  0
    2.8660   -4.2172    0.0000 H   0  0  0  0  0  0  0  0  0  0  0  0
    1.4631   -1.7872    0.0000 H   0  0  0  0  0  0  0  0  0  0  0  0
    1.4631   -3.4072    0.0000 H   0  0  0  0  0  0  0  0  0  0  0  0
  1 11  2  0  0  0  0
  2  7  1  0  0  0  0
  2 11  1  0  0  0  0
  2 32  1  0  0  0  0
  3 20  1  0  0  0  0
  3 21  1  0  0  0  0
  3 45  1  0  0  0  0
  4  5  1  0  0  0  0
  4  6  1  0  0  0  0
  4  7  1  0  0  0  0
  4  8  1  0  0  0  0
  5  6  1  0  0  0  0
  5 26  1  0  0  0  0
  5 27  1  0  0  0  0
  6 28  1  0  0  0  0
  6 29  1  0  0  0  0
  7 30  1  0  0  0  0
  7 31  1  0  0  0  0
  8  9  2  0  0  0  0
  8 10  1  0  0  0  0
  9 12  1  0  0  0  0
  9 33  1  0  0  0  0
 10 13  2  0  0  0  0
 10 34  1  0  0  0  0
 11 14  1  0  0  0  0
 12 15  2  0  0  0  0
 12 35  1  0  0  0  0
 13 15  1  0  0  0  0
 13 36  1  0  0  0  0
 14 16  1  0  0  0  0
 14 37  1  0  0  0  0
 14 38  1  0  0  0  0
 15 39  1  0  0  0  0
 16 17  1  0  0  0  0
 16 40  1  0  0  0  0
 16 41  1  0  0  0  0
 17 18  1  0  0  0  0
 17 42  1  0  0  0  0
 17 43  1  0  0  0  0
 18 19  1  0  0  0  0
 18 21  2  0  0  0  0
 19 20  1  0  0  0  0
 19 22  2  0  0  0  0
 20 23  2  0  0  0  0
 21 44  1  0  0  0  0
 22 24  1  0  0  0  0
 22 46  1  0  0  0  0
 23 25  1  0  0  0  0
 23 47  1  0  0  0  0
 24 25  2  0  0  0  0
 24 48  1  0  0  0  0
 25 49  1  0  0  0  0
M  END
> <PUBCHEM_COMPOUND_CID>
16582538

> <PUBCHEM_COMPOUND_CANONICALIZED>
1

> <PUBCHEM_CACTVS_COMPLEXITY>
453

> <PUBCHEM_CACTVS_HBOND_ACCEPTOR>
1

> <PUBCHEM_CACTVS_HBOND_DONOR>
2

> <PUBCHEM_CACTVS_ROTATABLE_BOND>
7

> <PUBCHEM_CACTVS_SUBSKEYS>
AAADceB7IAAAAAAAAAAAAAAAGAAAAWAAAAAwYAAAAAAAAFgB9AAAHgAQAAAADgjBngQ8wPLJkACoAzV3VACCgCAxAiAI2aE4ZJgIIPLAkZGEIAhglgDIyAcYiMCPgAAAAAACAAAAAAAAAAQAAAAAAAAAAA==

> <PUBCHEM_IUPAC_OPENEYE_NAME>
4-(1H-indol-3-yl)-N-[(1-phenylcyclopropyl)methyl]butanamide

> <PUBCHEM_IUPAC_CAS_NAME>
4-(1H-indol-3-yl)-N-[(1-phenylcyclopropyl)methyl]butanamide

> <PUBCHEM_IUPAC_NAME>
4-(1H-indol-3-yl)-N-[(1-phenylcyclopropyl)methyl]butanamide

> <PUBCHEM_IUPAC_SYSTEMATIC_NAME>
4-(1H-indol-3-yl)-N-[(1-phenylcyclopropyl)methyl]butanamide

> <PUBCHEM_IUPAC_TRADITIONAL_NAME>
4-(1H-indol-3-yl)-N-[(1-phenylcyclopropyl)methyl]butyramide

> <PUBCHEM_IUPAC_INCHI>
InChI=1S/C22H24N2O/c25-21(24-16-22(13-14-22)18-8-2-1-3-9-18)12-6-7-17-15-23-20-11-5-4-10-19(17)20/h1-5,8-11,15,23H,6-7,12-14,16H2,(H,24,25)

> <PUBCHEM_IUPAC_INCHIKEY>
SYFPYBBTAQAFEV-UHFFFAOYSA-N

> <PUBCHEM_XLOGP3>
4.3

> <PUBCHEM_EXACT_MASS>
332.188863

> <PUBCHEM_MOLECULAR_FORMULA>
C22H24N2O

> <PUBCHEM_MOLECULAR_WEIGHT>
332.43876

> <PUBCHEM_OPENEYE_CAN_SMILES>
C1CC1(CNC(=O)CCCC2=CNC3=CC=CC=C32)C4=CC=CC=C4

> <PUBCHEM_OPENEYE_ISO_SMILES>
C1CC1(CNC(=O)CCCC2=CNC3=CC=CC=C32)C4=CC=CC=C4

> <PUBCHEM_CACTVS_TPSA>
44.9

> <PUBCHEM_MONOISOTOPIC_WEIGHT>
332.188863

> <PUBCHEM_TOTAL_CHARGE>
0

> <PUBCHEM_HEAVY_ATOM_COUNT>
25

> <PUBCHEM_ATOM_DEF_STEREO_COUNT>
0

> <PUBCHEM_ATOM_UDEF_STEREO_COUNT>
0

> <PUBCHEM_BOND_DEF_STEREO_COUNT>
0

> <PUBCHEM_BOND_UDEF_STEREO_COUNT>
0

> <PUBCHEM_ISOTOPIC_ATOM_COUNT>
0

> <PUBCHEM_COMPONENT_COUNT>
1

> <PUBCHEM_CACTVS_TAUTO_COUNT>
2

> <PUBCHEM_COORDINATE_TYPE>
1
5
255

> <PUBCHEM_BONDANNOTATIONS>
10  13  8
12  15  8
13  15  8
18  19  8
18  21  8
19  20  8
19  22  8
20  23  8
22  24  8
23  25  8
24  25  8
3  20  8
3  21  8
8  10  8
8  9  8
9  12  8

$$$$
