47400017
  -OEChem-05231305272D

 37 38  0     1  0  0  0  0  0999 V2000
    5.4641    1.6830    0.0000 O   0  0  0  0  0  0  0  0  0  0  0  0
    4.5981    0.1830    0.0000 N   0  0  0  0  0  0  0  0  0  0  0  0
    3.7320    1.6830    0.0000 N   0  0  0  0  0  0  0  0  0  0  0  0
    5.9641   -1.1830    0.0000 C   0  0  3  0  0  0  0  0  0  0  0  0
    5.4641   -0.3170    0.0000 C   0  0  3  0  0  0  0  0  0  0  0  0
    6.4641   -0.3170    0.0000 C   0  0  0  0  0  0  0  0  0  0  0  0
    5.9641   -2.1830    0.0000 C   0  0  0  0  0  0  0  0  0  0  0  0
    5.0981   -2.6830    0.0000 C   0  0  0  0  0  0  0  0  0  0  0  0
    6.8301   -2.6830    0.0000 C   0  0  0  0  0  0  0  0  0  0  0  0
    4.5981    1.1830    0.0000 C   0  0  0  0  0  0  0  0  0  0  0  0
    5.0981   -3.6830    0.0000 C   0  0  0  0  0  0  0  0  0  0  0  0
    6.8301   -3.6830    0.0000 C   0  0  0  0  0  0  0  0  0  0  0  0
    3.7320    2.6830    0.0000 C   0  0  0  0  0  0  0  0  0  0  0  0
    2.8660    3.1830    0.0000 C   0  0  0  0  0  0  0  0  0  0  0  0
    5.9641   -4.1830    0.0000 C   0  0  0  0  0  0  0  0  0  0  0  0
    2.8660    4.1830    0.0000 C   0  0  0  0  0  0  0  0  0  0  0  0
    2.0000    2.6830    0.0000 C   0  0  0  0  0  0  0  0  0  0  0  0
    6.5630   -1.3435    0.0000 H   0  0  0  0  0  0  0  0  0  0  0  0
    5.6246    0.2819    0.0000 H   0  0  0  0  0  0  0  0  0  0  0  0
    7.0467   -0.5290    0.0000 H   0  0  0  0  0  0  0  0  0  0  0  0
    6.5718    0.2936    0.0000 H   0  0  0  0  0  0  0  0  0  0  0  0
    4.0611   -0.1270    0.0000 H   0  0  0  0  0  0  0  0  0  0  0  0
    4.5611   -2.3730    0.0000 H   0  0  0  0  0  0  0  0  0  0  0  0
    7.3671   -2.3730    0.0000 H   0  0  0  0  0  0  0  0  0  0  0  0
    3.1951    1.3730    0.0000 H   0  0  0  0  0  0  0  0  0  0  0  0
    4.3426    2.5753    0.0000 H   0  0  0  0  0  0  0  0  0  0  0  0
    3.9441    3.2656    0.0000 H   0  0  0  0  0  0  0  0  0  0  0  0
    4.5611   -3.9930    0.0000 H   0  0  0  0  0  0  0  0  0  0  0  0
    7.3671   -3.9930    0.0000 H   0  0  0  0  0  0  0  0  0  0  0  0
    2.8660    2.5630    0.0000 H   0  0  0  0  0  0  0  0  0  0  0  0
    5.9641   -4.8030    0.0000 H   0  0  0  0  0  0  0  0  0  0  0  0
    3.4860    4.1830    0.0000 H   0  0  0  0  0  0  0  0  0  0  0  0
    2.8660    4.8030    0.0000 H   0  0  0  0  0  0  0  0  0  0  0  0
    1.6900    3.2200    0.0000 H   0  0  0  0  0  0  0  0  0  0  0  0
    1.4631    2.3730    0.0000 H   0  0  0  0  0  0  0  0  0  0  0  0
    2.3100    2.1461    0.0000 H   0  0  0  0  0  0  0  0  0  0  0  0
    2.2460    4.1830    0.0000 H   0  0  0  0  0  0  0  0  0  0  0  0
  1 10  2  0  0  0  0
  2  5  1  0  0  0  0
  2 10  1  0  0  0  0
  2 22  1  0  0  0  0
  3 10  1  0  0  0  0
  3 13  1  0  0  0  0
  3 25  1  0  0  0  0
  4  5  1  0  0  0  0
  4  6  1  0  0  0  0
  4  7  1  0  0  0  0
  4 18  1  0  0  0  0
  5  6  1  0  0  0  0
  5 19  1  0  0  0  0
  6 20  1  0  0  0  0
  6 21  1  0  0  0  0
  7  8  2  0  0  0  0
  7  9  1  0  0  0  0
  8 11  1  0  0  0  0
  8 23  1  0  0  0  0
  9 12  2  0  0  0  0
  9 24  1  0  0  0  0
 11 15  2  0  0  0  0
 11 28  1  0  0  0  0
 12 15  1  0  0  0  0
 12 29  1  0  0  0  0
 13 14  1  0  0  0  0
 13 26  1  0  0  0  0
 13 27  1  0  0  0  0
 14 16  1  0  0  0  0
 14 17  1  0  0  0  0
 14 30  1  0  0  0  0
 15 31  1  0  0  0  0
 16 32  1  0  0  0  0
 16 33  1  0  0  0  0
 16 37  1  0  0  0  0
 17 34  1  0  0  0  0
 17 35  1  0  0  0  0
 17 36  1  0  0  0  0
M  END
> <PUBCHEM_COMPOUND_CID>
47400017

> <PUBCHEM_COMPOUND_CANONICALIZED>
1

> <PUBCHEM_CACTVS_COMPLEXITY>
259

> <PUBCHEM_CACTVS_HBOND_ACCEPTOR>
1

> <PUBCHEM_CACTVS_HBOND_DONOR>
2

> <PUBCHEM_CACTVS_ROTATABLE_BOND>
4

> <PUBCHEM_CACTVS_SUBSKEYS>
AAADceBzIAAAAAAAAAAAAAAAGAAAAAAAAAAwAAAAAAAAAAABAAAAHgAQAAAADSjBGAQzAILAAACIAiBCEAACAAAgAAAIiIAIAIiIICKAkRGEIAAolgIIiAcQgMAOgAAAAAAAAAAAAAAAAAAAAAAAAAAAAA==

> <PUBCHEM_IUPAC_OPENEYE_NAME>
1-isobutyl-3-(2-phenylcyclopropyl)urea

> <PUBCHEM_IUPAC_CAS_NAME>
1-(2-methylpropyl)-3-(2-phenylcyclopropyl)urea

> <PUBCHEM_IUPAC_NAME>
1-(2-methylpropyl)-3-(2-phenylcyclopropyl)urea

> <PUBCHEM_IUPAC_SYSTEMATIC_NAME>
1-(2-methylpropyl)-3-(2-phenylcyclopropyl)urea

> <PUBCHEM_IUPAC_TRADITIONAL_NAME>
1-isobutyl-3-(2-phenylcyclopropyl)urea

> <PUBCHEM_IUPAC_INCHI>
InChI=1S/C14H20N2O/c1-10(2)9-15-14(17)16-13-8-12(13)11-6-4-3-5-7-11/h3-7,10,12-13H,8-9H2,1-2H3,(H2,15,16,17)

> <PUBCHEM_IUPAC_INCHIKEY>
SBPYAXMPSPWIOM-UHFFFAOYSA-N

> <PUBCHEM_XLOGP3>
2.6

> <PUBCHEM_EXACT_MASS>
232.157563

> <PUBCHEM_MOLECULAR_FORMULA>
C14H20N2O

> <PUBCHEM_MOLECULAR_WEIGHT>
232.3214

> <PUBCHEM_OPENEYE_CAN_SMILES>
CC(C)CNC(=O)NC1CC1C2=CC=CC=C2

> <PUBCHEM_OPENEYE_ISO_SMILES>
CC(C)CNC(=O)NC1CC1C2=CC=CC=C2

> <PUBCHEM_CACTVS_TPSA>
41.1

> <PUBCHEM_MONOISOTOPIC_WEIGHT>
232.157563

> <PUBCHEM_TOTAL_CHARGE>
0

> <PUBCHEM_HEAVY_ATOM_COUNT>
17

> <PUBCHEM_ATOM_DEF_STEREO_COUNT>
0

> <PUBCHEM_ATOM_UDEF_STEREO_COUNT>
2

> <PUBCHEM_BOND_DEF_STEREO_COUNT>
0

> <PUBCHEM_BOND_UDEF_STEREO_COUNT>
0

> <PUBCHEM_ISOTOPIC_ATOM_COUNT>
0

> <PUBCHEM_COMPONENT_COUNT>
1

> <PUBCHEM_CACTVS_TAUTO_COUNT>
3

> <PUBCHEM_COORDINATE_TYPE>
1
5
255

> <PUBCHEM_BONDANNOTATIONS>
11  15  8
12  15  8
5  2  3
4  7  3
7  8  8
7  9  8
8  11  8
9  12  8

$$$$
47416208
  -OEChem-05231305272D

 42 44  0     1  0  0  0  0  0999 V2000
    6.6353   -0.3811    0.0000 O   0  0  0  0  0  0  0  0  0  0  0  0
    6.2781    1.3137    0.0000 N   0  0  0  0  0  0  0  0  0  0  0  0
    4.6783   -2.4030    0.0000 N   0  0  0  0  0  0  0  0  0  0  0  0
    5.6917    2.1237    0.0000 C   0  0  3  0  0  0  0  0  0  0  0  0
    6.2809    2.9317    0.0000 C   0  0  0  0  0  0  0  0  0  0  0  0
    4.6917    2.1255    0.0000 C   0  0  0  0  0  0  0  0  0  0  0  0
    7.2314    2.6211    0.0000 C   0  0  0  0  0  0  0  0  0  0  0  0
    7.2297    1.6211    0.0000 C   0  0  0  0  0  0  0  0  0  0  0  0
    5.9674    0.3632    0.0000 C   0  0  0  0  0  0  0  0  0  0  0  0
    4.1932    2.9924    0.0000 C   0  0  0  0  0  0  0  0  0  0  0  0
    4.1902    1.2603    0.0000 C   0  0  0  0  0  0  0  0  0  0  0  0
    4.9889    0.1570    0.0000 C   0  0  0  0  0  0  0  0  0  0  0  0
    4.6783   -0.7936    0.0000 C   0  0  0  0  0  0  0  0  0  0  0  0
    3.7320   -1.0983    0.0000 C   0  0  0  0  0  0  0  0  0  0  0  0
    5.2619   -1.5983    0.0000 C   0  0  0  0  0  0  0  0  0  0  0  0
    3.7320   -2.0983    0.0000 C   0  0  0  0  0  0  0  0  0  0  0  0
    2.8660   -0.5983    0.0000 C   0  0  0  0  0  0  0  0  0  0  0  0
    2.8660   -2.5983    0.0000 C   0  0  0  0  0  0  0  0  0  0  0  0
    2.0000   -1.0983    0.0000 C   0  0  0  0  0  0  0  0  0  0  0  0
    2.0000   -2.0983    0.0000 C   0  0  0  0  0  0  0  0  0  0  0  0
    5.4093    1.5718    0.0000 H   0  0  0  0  0  0  0  0  0  0  0  0
    6.5341    3.4977    0.0000 H   0  0  0  0  0  0  0  0  0  0  0  0
    5.7445    3.2427    0.0000 H   0  0  0  0  0  0  0  0  0  0  0  0
    4.0717    2.1265    0.0000 H   0  0  0  0  0  0  0  0  0  0  0  0
    7.8479    2.5552    0.0000 H   0  0  0  0  0  0  0  0  0  0  0  0
    7.3614    3.2273    0.0000 H   0  0  0  0  0  0  0  0  0  0  0  0
    7.3576    1.0144    0.0000 H   0  0  0  0  0  0  0  0  0  0  0  0
    7.8464    1.6848    0.0000 H   0  0  0  0  0  0  0  0  0  0  0  0
    3.6538    1.5712    0.0000 H   0  0  0  0  0  0  0  0  0  0  0  0
    3.8793    0.7239    0.0000 H   0  0  0  0  0  0  0  0  0  0  0  0
    4.7266    0.9494    0.0000 H   0  0  0  0  0  0  0  0  0  0  0  0
    4.7307    3.3014    0.0000 H   0  0  0  0  0  0  0  0  0  0  0  0
    3.8842    3.5298    0.0000 H   0  0  0  0  0  0  0  0  0  0  0  0
    3.6558    2.6833    0.0000 H   0  0  0  0  0  0  0  0  0  0  0  0
    4.9684    0.7766    0.0000 H   0  0  0  0  0  0  0  0  0  0  0  0
    4.3751    0.2443    0.0000 H   0  0  0  0  0  0  0  0  0  0  0  0
    5.8819   -1.5983    0.0000 H   0  0  0  0  0  0  0  0  0  0  0  0
    4.8709   -2.9924    0.0000 H   0  0  0  0  0  0  0  0  0  0  0  0
    2.8660    0.0217    0.0000 H   0  0  0  0  0  0  0  0  0  0  0  0
    2.8660   -3.2183    0.0000 H   0  0  0  0  0  0  0  0  0  0  0  0
    1.4631   -0.7883    0.0000 H   0  0  0  0  0  0  0  0  0  0  0  0
    1.4631   -2.4083    0.0000 H   0  0  0  0  0  0  0  0  0  0  0  0
  1  9  2  0  0  0  0
  2  4  1  0  0  0  0
  2  8  1  0  0  0  0
  2  9  1  0  0  0  0
  3 15  1  0  0  0  0
  3 16  1  0  0  0  0
  3 38  1  0  0  0  0
  4  5  1  0  0  0  0
  4  6  1  0  0  0  0
  4 21  1  0  0  0  0
  5  7  1  0  0  0  0
  5 22  1  0  0  0  0
  5 23  1  0  0  0  0
  6 10  1  0  0  0  0
  6 11  1  0  0  0  0
  6 24  1  0  0  0  0
  7  8  1  0  0  0  0
  7 25  1  0  0  0  0
  7 26  1  0  0  0  0
  8 27  1  0  0  0  0
  8 28  1  0  0  0  0
  9 12  1  0  0  0  0
 10 32  1  0  0  0  0
 10 33  1  0  0  0  0
 10 34  1  0  0  0  0
 11 29  1  0  0  0  0
 11 30  1  0  0  0  0
 11 31  1  0  0  0  0
 12 13  1  0  0  0  0
 12 35  1  0  0  0  0
 12 36  1  0  0  0  0
 13 14  1  0  0  0  0
 13 15  2  0  0  0  0
 14 16  1  0  0  0  0
 14 17  2  0  0  0  0
 15 37  1  0  0  0  0
 16 18  2  0  0  0  0
 17 19  1  0  0  0  0
 17 39  1  0  0  0  0
 18 20  1  0  0  0  0
 18 40  1  0  0  0  0
 19 20  2  0  0  0  0
 19 41  1  0  0  0  0
 20 42  1  0  0  0  0
M  END
> <PUBCHEM_COMPOUND_CID>
47416208

> <PUBCHEM_COMPOUND_CANONICALIZED>
1

> <PUBCHEM_CACTVS_COMPLEXITY>
355

> <PUBCHEM_CACTVS_HBOND_ACCEPTOR>
1

> <PUBCHEM_CACTVS_HBOND_DONOR>
1

> <PUBCHEM_CACTVS_ROTATABLE_BOND>
3

> <PUBCHEM_CACTVS_SUBSKEYS>
AAADceB7IAAAAAAAAAAAAAAAAAAAAWLAAAAwAAAAAAAAAFgB8AAAHgAQAAAADSjBngQ+wPPJkACoAzV3VACCgCAxAiAI2aE4ZJgIIPLAlZGEIAhglgDIyAccicCegAAAAAACAAAAAAAAAAQAAAAAAAAAAA==

> <PUBCHEM_IUPAC_OPENEYE_NAME>
2-(1H-indol-3-yl)-1-(2-isopropylpyrrolidin-1-yl)ethanone

> <PUBCHEM_IUPAC_CAS_NAME>
2-(1H-indol-3-yl)-1-(2-propan-2-yl-1-pyrrolidinyl)ethanone

> <PUBCHEM_IUPAC_NAME>
2-(1H-indol-3-yl)-1-(2-propan-2-ylpyrrolidin-1-yl)ethanone

> <PUBCHEM_IUPAC_SYSTEMATIC_NAME>
2-(1H-indol-3-yl)-1-(2-propan-2-ylpyrrolidin-1-yl)ethanone

> <PUBCHEM_IUPAC_TRADITIONAL_NAME>
2-(1H-indol-3-yl)-1-(2-isopropylpyrrolidino)ethanone

> <PUBCHEM_IUPAC_INCHI>
InChI=1S/C17H22N2O/c1-12(2)16-8-5-9-19(16)17(20)10-13-11-18-15-7-4-3-6-14(13)15/h3-4,6-7,11-12,16,18H,5,8-10H2,1-2H3

> <PUBCHEM_IUPAC_INCHIKEY>
TUAKJXHYGDKPPN-UHFFFAOYSA-N

> <PUBCHEM_XLOGP3>
3.2

> <PUBCHEM_EXACT_MASS>
270.173213

> <PUBCHEM_MOLECULAR_FORMULA>
C17H22N2O

> <PUBCHEM_MOLECULAR_WEIGHT>
270.36938

> <PUBCHEM_OPENEYE_CAN_SMILES>
CC(C)C1CCCN1C(=O)CC2=CNC3=CC=CC=C32

> <PUBCHEM_OPENEYE_ISO_SMILES>
CC(C)C1CCCN1C(=O)CC2=CNC3=CC=CC=C32

> <PUBCHEM_CACTVS_TPSA>
36.1

> <PUBCHEM_MONOISOTOPIC_WEIGHT>
270.173213

> <PUBCHEM_TOTAL_CHARGE>
0

> <PUBCHEM_HEAVY_ATOM_COUNT>
20

> <PUBCHEM_ATOM_DEF_STEREO_COUNT>
0

> <PUBCHEM_ATOM_UDEF_STEREO_COUNT>
1

> <PUBCHEM_BOND_DEF_STEREO_COUNT>
0

> <PUBCHEM_BOND_UDEF_STEREO_COUNT>
0

> <PUBCHEM_ISOTOPIC_ATOM_COUNT>
0

> <PUBCHEM_COMPONENT_COUNT>
1

> <PUBCHEM_CACTVS_TAUTO_COUNT>
1

> <PUBCHEM_COORDINATE_TYPE>
1
5
255

> <PUBCHEM_BONDANNOTATIONS>
13  14  8
13  15  8
14  16  8
14  17  8
16  18  8
17  19  8
18  20  8
19  20  8
3  15  8
3  16  8
4  6  3

$$$$
