34166117
  -OEChem-10191221422D

 36 38  0     0  0  0  0  0  0999 V2000
    6.7619    2.3341    0.0000 O   0  0  0  0  0  0  0  0  0  0  0  0
    4.6783    2.2728    0.0000 N   0  0  0  0  0  0  0  0  0  0  0  0
    6.7619    0.6020    0.0000 N   0  0  0  0  0  0  0  0  0  0  0  0
    3.7320    1.9680    0.0000 C   0  0  0  0  0  0  0  0  0  0  0  0
    3.7320    0.9680    0.0000 C   0  0  0  0  0  0  0  0  0  0  0  0
    5.2619    1.4680    0.0000 C   0  0  0  0  0  0  0  0  0  0  0  0
    4.6783    0.6633    0.0000 C   0  0  0  0  0  0  0  0  0  0  0  0
    7.7619    0.6020    0.0000 C   0  0  0  0  0  0  0  0  0  0  0  0
    8.2619   -0.2640    0.0000 C   0  0  0  0  0  0  0  0  0  0  0  0
    6.2619    1.4680    0.0000 C   0  0  0  0  0  0  0  0  0  0  0  0
    2.8660    2.4680    0.0000 C   0  0  0  0  0  0  0  0  0  0  0  0
    2.8660    0.4680    0.0000 C   0  0  0  0  0  0  0  0  0  0  0  0
    7.7619   -1.1300    0.0000 C   0  0  0  0  0  0  0  0  0  0  0  0
    8.2619   -1.9961    0.0000 C   0  0  0  0  0  0  0  0  0  0  0  0
    9.2619   -0.2640    0.0000 C   0  0  0  0  0  0  0  0  0  0  0  0
    2.0000    1.9680    0.0000 C   0  0  0  0  0  0  0  0  0  0  0  0
    2.0000    0.9680    0.0000 C   0  0  0  0  0  0  0  0  0  0  0  0
    9.2619   -1.9961    0.0000 C   0  0  0  0  0  0  0  0  0  0  0  0
    9.7619   -1.1300    0.0000 C   0  0  0  0  0  0  0  0  0  0  0  0
    7.7619   -2.8621    0.0000 C   0  0  0  0  0  0  0  0  0  0  0  0
    4.8709    2.8621    0.0000 H   0  0  0  0  0  0  0  0  0  0  0  0
    4.8709    0.0740    0.0000 H   0  0  0  0  0  0  0  0  0  0  0  0
    8.3445    0.8141    0.0000 H   0  0  0  0  0  0  0  0  0  0  0  0
    7.6542    1.2126    0.0000 H   0  0  0  0  0  0  0  0  0  0  0  0
    6.4519    0.0651    0.0000 H   0  0  0  0  0  0  0  0  0  0  0  0
    2.8660    3.0880    0.0000 H   0  0  0  0  0  0  0  0  0  0  0  0
    2.8660   -0.1520    0.0000 H   0  0  0  0  0  0  0  0  0  0  0  0
    7.1419   -1.1300    0.0000 H   0  0  0  0  0  0  0  0  0  0  0  0
    9.5719    0.2729    0.0000 H   0  0  0  0  0  0  0  0  0  0  0  0
    1.4631    2.2780    0.0000 H   0  0  0  0  0  0  0  0  0  0  0  0
    1.4631    0.6580    0.0000 H   0  0  0  0  0  0  0  0  0  0  0  0
    9.5719   -2.5330    0.0000 H   0  0  0  0  0  0  0  0  0  0  0  0
   10.3819   -1.1300    0.0000 H   0  0  0  0  0  0  0  0  0  0  0  0
    7.2249   -2.5521    0.0000 H   0  0  0  0  0  0  0  0  0  0  0  0
    7.4519   -3.3990    0.0000 H   0  0  0  0  0  0  0  0  0  0  0  0
    8.2988   -3.1721    0.0000 H   0  0  0  0  0  0  0  0  0  0  0  0
  1 10  2  0  0  0  0
  2  4  1  0  0  0  0
  2  6  1  0  0  0  0
  2 21  1  0  0  0  0
  3  8  1  0  0  0  0
  3 10  1  0  0  0  0
  3 25  1  0  0  0  0
  4  5  1  0  0  0  0
  4 11  2  0  0  0  0
  5  7  1  0  0  0  0
  5 12  2  0  0  0  0
  6  7  2  0  0  0  0
  6 10  1  0  0  0  0
  7 22  1  0  0  0  0
  8  9  1  0  0  0  0
  8 23  1  0  0  0  0
  8 24  1  0  0  0  0
  9 13  1  0  0  0  0
  9 15  2  0  0  0  0
 11 16  1  0  0  0  0
 11 26  1  0  0  0  0
 12 17  1  0  0  0  0
 12 27  1  0  0  0  0
 13 14  2  0  0  0  0
 13 28  1  0  0  0  0
 14 18  1  0  0  0  0
 14 20  1  0  0  0  0
 15 19  1  0  0  0  0
 15 29  1  0  0  0  0
 16 17  2  0  0  0  0
 16 30  1  0  0  0  0
 17 31  1  0  0  0  0
 18 19  2  0  0  0  0
 18 32  1  0  0  0  0
 19 33  1  0  0  0  0
 20 34  1  0  0  0  0
 20 35  1  0  0  0  0
 20 36  1  0  0  0  0
M  END
> <PUBCHEM_COMPOUND_CID>
34166117

> <PUBCHEM_COMPOUND_CANONICALIZED>
1

> <PUBCHEM_CACTVS_COMPLEXITY>
344

> <PUBCHEM_CACTVS_HBOND_ACCEPTOR>
1

> <PUBCHEM_CACTVS_HBOND_DONOR>
2

> <PUBCHEM_CACTVS_ROTATABLE_BOND>
3

> <PUBCHEM_CACTVS_SUBSKEYS>
AAADceB7IAAAAAAAAAAAAAAAAAAAAWAAAAAwYAAAAAAAAFgB9AAAHgAQAAAADAjBngQywPLJkACoAyVyVACCgCAnAiAImaG4ZNgIYPLAlbGUIQhglgDIyYcYicCeAAACAAACAAAAAAQAAAQAAAAAAAAAAA==

> <PUBCHEM_IUPAC_OPENEYE_NAME>
N-(m-tolylmethyl)-1H-indole-2-carboxamide

> <PUBCHEM_IUPAC_CAS_NAME>
N-[(3-methylphenyl)methyl]-1H-indole-2-carboxamide

> <PUBCHEM_IUPAC_NAME>
N-[(3-methylphenyl)methyl]-1H-indole-2-carboxamide

> <PUBCHEM_IUPAC_SYSTEMATIC_NAME>
N-[(3-methylphenyl)methyl]-1H-indole-2-carboxamide

> <PUBCHEM_IUPAC_TRADITIONAL_NAME>
N-(3-methylbenzyl)-1H-indole-2-carboxamide

> <PUBCHEM_IUPAC_INCHI>
InChI=1S/C17H16N2O/c1-12-5-4-6-13(9-12)11-18-17(20)16-10-14-7-2-3-8-15(14)19-16/h2-10,19H,11H2,1H3,(H,18,20)

> <PUBCHEM_IUPAC_INCHIKEY>
NZIWMJSHQXVGME-UHFFFAOYSA-N

> <PUBCHEM_XLOGP3>
3.9

> <PUBCHEM_EXACT_MASS>
264.126263

> <PUBCHEM_MOLECULAR_FORMULA>
C17H16N2O

> <PUBCHEM_MOLECULAR_WEIGHT>
264.32174

> <PUBCHEM_OPENEYE_CAN_SMILES>
CC1=CC(=CC=C1)CNC(=O)C2=CC3=CC=CC=C3N2

> <PUBCHEM_OPENEYE_ISO_SMILES>
CC1=CC(=CC=C1)CNC(=O)C2=CC3=CC=CC=C3N2

> <PUBCHEM_CACTVS_TPSA>
44.9

> <PUBCHEM_MONOISOTOPIC_WEIGHT>
264.126263

> <PUBCHEM_TOTAL_CHARGE>
0

> <PUBCHEM_HEAVY_ATOM_COUNT>
20

> <PUBCHEM_ATOM_DEF_STEREO_COUNT>
0

> <PUBCHEM_ATOM_UDEF_STEREO_COUNT>
0

> <PUBCHEM_BOND_DEF_STEREO_COUNT>
0

> <PUBCHEM_BOND_UDEF_STEREO_COUNT>
0

> <PUBCHEM_ISOTOPIC_ATOM_COUNT>
0

> <PUBCHEM_COMPONENT_COUNT>
1

> <PUBCHEM_CACTVS_TAUTO_COUNT>
11

> <PUBCHEM_COORDINATE_TYPE>
1
5
255

> <PUBCHEM_BONDANNOTATIONS>
11  16  8
12  17  8
13  14  8
14  18  8
15  19  8
16  17  8
18  19  8
2  4  8
2  6  8
4  11  8
4  5  8
5  12  8
5  7  8
6  7  8
9  13  8
9  15  8

$$$$
34173598
  -OEChem-10191221422D

 48 51  0     1  0  0  0  0  0999 V2000
    7.6634   -0.7154    0.0000 S   0  0  0  0  0  0  0  0  0  0  0  0
    5.0653    0.7846    0.0000 S   0  0  0  0  0  0  0  0  0  0  0  0
   10.2433    1.4973    0.0000 O   0  0  0  0  0  0  0  0  0  0  0  0
   11.4706    0.2941    0.0000 O   0  0  0  0  0  0  0  0  0  0  0  0
    6.7974    2.7846    0.0000 O   0  5  0  0  0  0  0  0  0  0  0  0
    8.5294    2.7846    0.0000 O   0  0  0  0  0  0  0  0  0  0  0  0
   15.7813   -0.3525    0.0000 O   0  0  0  0  0  0  0  0  0  0  0  0
    8.5294    0.7846    0.0000 N   0  0  0  0  0  0  0  0  0  0  0  0
   10.2433   -0.9281    0.0000 N   0  0  0  0  0  0  0  0  0  0  0  0
   11.6546   -2.3453    0.0000 N   0  0  0  0  0  0  0  0  0  0  0  0
    3.2857    0.8778    0.0000 N   0  0  0  0  0  0  0  0  0  0  0  0
    2.6166    1.6210    0.0000 N   0  0  0  0  0  0  0  0  0  0  0  0
    3.1166    2.4870    0.0000 N   0  0  0  0  0  0  0  0  0  0  0  0
    8.5294   -0.2154    0.0000 C   0  0  1  0  0  0  0  0  0  0  0  0
    9.5377   -0.2196    0.0000 C   0  0  1  0  0  0  0  0  0  0  0  0
    9.5377    0.7887    0.0000 C   0  0  0  0  0  0  0  0  0  0  0  0
    7.6634    1.2846    0.0000 C   0  0  0  0  0  0  0  0  0  0  0  0
    6.7974    0.7846    0.0000 C   0  0  0  0  0  0  0  0  0  0  0  0
    6.7974   -0.2154    0.0000 C   0  0  0  0  0  0  0  0  0  0  0  0
    5.9313    1.2846    0.0000 C   0  0  0  0  0  0  0  0  0  0  0  0
   11.2098   -0.6713    0.0000 C   0  0  0  0  0  0  0  0  0  0  0  0
    7.6634    2.2846    0.0000 C   0  0  0  0  0  0  0  0  0  0  0  0
   11.9154   -1.3799    0.0000 C   0  0  1  0  0  0  0  0  0  0  0  0
   12.8819   -1.1230    0.0000 C   0  0  0  0  0  0  0  0  0  0  0  0
   13.1427   -0.1576    0.0000 C   0  0  0  0  0  0  0  0  0  0  0  0
   13.5876   -1.8316    0.0000 C   0  0  0  0  0  0  0  0  0  0  0  0
    4.1993    1.2846    0.0000 C   0  0  0  0  0  0  0  0  0  0  0  0
   14.1092    0.0992    0.0000 C   0  0  0  0  0  0  0  0  0  0  0  0
   14.5540   -1.5748    0.0000 C   0  0  0  0  0  0  0  0  0  0  0  0
   14.8148   -0.6094    0.0000 C   0  0  0  0  0  0  0  0  0  0  0  0
    4.0948    2.2791    0.0000 C   0  0  0  0  0  0  0  0  0  0  0  0
    8.7477   -1.0369    0.0000 H   0  0  0  0  0  0  0  0  0  0  0  0
    9.2987   -0.7917    0.0000 H   0  0  0  0  0  0  0  0  0  0  0  0
   10.0816   -1.5267    0.0000 H   0  0  0  0  0  0  0  0  0  0  0  0
    6.1868   -0.1078    0.0000 H   0  0  0  0  0  0  0  0  0  0  0  0
    6.5853   -0.7980    0.0000 H   0  0  0  0  0  0  0  0  0  0  0  0
    6.3299    1.7595    0.0000 H   0  0  0  0  0  0  0  0  0  0  0  0
    5.5328    1.7595    0.0000 H   0  0  0  0  0  0  0  0  0  0  0  0
   11.3162   -1.5391    0.0000 H   0  0  0  0  0  0  0  0  0  0  0  0
   12.0921   -2.7846    0.0000 H   0  0  0  0  0  0  0  0  0  0  0  0
   11.0554   -2.5045    0.0000 H   0  0  0  0  0  0  0  0  0  0  0  0
   12.7052    0.2817    0.0000 H   0  0  0  0  0  0  0  0  0  0  0  0
   13.4259   -2.4301    0.0000 H   0  0  0  0  0  0  0  0  0  0  0  0
   14.2709    0.6977    0.0000 H   0  0  0  0  0  0  0  0  0  0  0  0
   14.9915   -2.0141    0.0000 H   0  0  0  0  0  0  0  0  0  0  0  0
    4.5555    2.6940    0.0000 H   0  0  0  0  0  0  0  0  0  0  0  0
    2.0000    1.5562    0.0000 H   0  0  0  0  0  0  0  0  0  0  0  0
   16.2188   -0.7918    0.0000 H   0  0  0  0  0  0  0  0  0  0  0  0
  1 14  1  0  0  0  0
  1 19  1  0  0  0  0
  2 20  1  0  0  0  0
  2 27  1  0  0  0  0
  3 16  2  0  0  0  0
  4 21  2  0  0  0  0
  5 22  1  0  0  0  0
  6 22  2  0  0  0  0
  7 30  1  0  0  0  0
  7 48  1  0  0  0  0
  8 14  1  0  0  0  0
  8 16  1  0  0  0  0
  8 17  1  0  0  0  0
 15  9  1  1  0  0  0
  9 21  1  0  0  0  0
  9 34  1  0  0  0  0
 23 10  1  1  0  0  0
 10 40  1  0  0  0  0
 10 41  1  0  0  0  0
 11 12  1  0  0  0  0
 11 27  2  0  0  0  0
 12 13  1  0  0  0  0
 12 47  1  0  0  0  0
 13 31  2  0  0  0  0
 14 15  1  0  0  0  0
 14 32  1  6  0  0  0
 15 16  1  0  0  0  0
 15 33  1  0  0  0  0
 17 18  2  0  0  0  0
 17 22  1  0  0  0  0
 18 19  1  0  0  0  0
 18 20  1  0  0  0  0
 19 35  1  0  0  0  0
 19 36  1  0  0  0  0
 20 37  1  0  0  0  0
 20 38  1  0  0  0  0
 21 23  1  0  0  0  0
 23 24  1  0  0  0  0
 23 39  1  0  0  0  0
 24 25  2  0  0  0  0
 24 26  1  0  0  0  0
 25 28  1  0  0  0  0
 25 42  1  0  0  0  0
 26 29  2  0  0  0  0
 26 43  1  0  0  0  0
 27 31  1  0  0  0  0
 28 30  2  0  0  0  0
 28 44  1  0  0  0  0
 29 30  1  0  0  0  0
 29 45  1  0  0  0  0
 31 46  1  0  0  0  0
M  CHG  1   5  -1
M  END
> <PUBCHEM_COMPOUND_CID>
34173598

> <PUBCHEM_COMPOUND_CANONICALIZED>
1

> <PUBCHEM_CACTVS_COMPLEXITY>
769

> <PUBCHEM_CACTVS_HBOND_ACCEPTOR>
10

> <PUBCHEM_CACTVS_HBOND_DONOR>
4

> <PUBCHEM_CACTVS_ROTATABLE_BOND>
6

> <PUBCHEM_CACTVS_SUBSKEYS>
AAADceB7uABgAAAAAAAAAAAAAABYAWAAAAAwQAAAAAAQAAABwAAAHgQYCAAADCzF2gS8j5PCAgiqAjX3WACCBARguhAYqI2ePMgKZjqilTOUcABk1hG4mQeY2IGOIAAAAAAAAABAAAAAAAAAAAAAAAAAAA==

> <PUBCHEM_IUPAC_OPENEYE_NAME>
(6R,7R)-7-[[(2R)-2-amino-2-(4-hydroxyphenyl)acetyl]amino]-8-oxo-3-(2H-triazol-4-ylsulfanylmethyl)-5-thia-1-azabicyclo[4.2.0]oct-2-ene-2-carboxylate

> <PUBCHEM_IUPAC_CAS_NAME>
(6R,7R)-7-[[(2R)-2-amino-2-(4-hydroxyphenyl)-1-oxoethyl]amino]-8-oxo-3-[(2H-triazol-4-ylthio)methyl]-5-thia-1-azabicyclo[4.2.0]oct-2-ene-2-carboxylate

> <PUBCHEM_IUPAC_NAME>
(6R,7R)-7-[[(2R)-2-amino-2-(4-hydroxyphenyl)acetyl]amino]-8-oxo-3-(2H-triazol-4-ylsulfanylmethyl)-5-thia-1-azabicyclo[4.2.0]oct-2-ene-2-carboxylate

> <PUBCHEM_IUPAC_SYSTEMATIC_NAME>
(6R,7R)-7-[[(2R)-2-azanyl-2-(4-hydroxyphenyl)ethanoyl]amino]-8-oxidanylidene-3-(2H-1,2,3-triazol-4-ylsulfanylmethyl)-5-thia-1-azabicyclo[4.2.0]oct-2-ene-2-carboxylate

> <PUBCHEM_IUPAC_TRADITIONAL_NAME>
(6R,7R)-7-[[(2R)-2-amino-2-(4-hydroxyphenyl)acetyl]amino]-8-keto-3-[(2H-triazol-4-ylthio)methyl]-5-thia-1-azabicyclo[4.2.0]oct-2-ene-2-carboxylate

> <PUBCHEM_IUPAC_INCHI>
InChI=1S/C18H18N6O5S2/c19-12(8-1-3-10(25)4-2-8)15(26)21-13-16(27)24-14(18(28)29)9(7-31-17(13)24)6-30-11-5-20-23-22-11/h1-5,12-13,17,25H,6-7,19H2,(H,21,26)(H,28,29)(H,20,22,23)/p-1/t12-,13-,17-/m1/s1

> <PUBCHEM_IUPAC_INCHIKEY>
UOCJDOLVGGIYIQ-PBFPGSCMSA-M

> <PUBCHEM_XLOGP3>
-1.7

> <PUBCHEM_EXACT_MASS>
461.070185

> <PUBCHEM_MOLECULAR_FORMULA>
C18H17N6O5S2-

> <PUBCHEM_MOLECULAR_WEIGHT>
461.49478

> <PUBCHEM_OPENEYE_CAN_SMILES>
C1C(=C(N2C(S1)C(C2=O)NC(=O)C(C3=CC=C(C=C3)O)N)C(=O)[O-])CSC4=NNN=C4

> <PUBCHEM_OPENEYE_ISO_SMILES>
C1C(=C(N2[C@H](S1)[C@@H](C2=O)NC(=O)[C@@H](C3=CC=C(C=C3)O)N)C(=O)[O-])CSC4=NNN=C4

> <PUBCHEM_CACTVS_TPSA>
228

> <PUBCHEM_MONOISOTOPIC_WEIGHT>
461.070185

> <PUBCHEM_TOTAL_CHARGE>
-1

> <PUBCHEM_HEAVY_ATOM_COUNT>
31

> <PUBCHEM_ATOM_DEF_STEREO_COUNT>
3

> <PUBCHEM_ATOM_UDEF_STEREO_COUNT>
0

> <PUBCHEM_BOND_DEF_STEREO_COUNT>
0

> <PUBCHEM_BOND_UDEF_STEREO_COUNT>
0

> <PUBCHEM_ISOTOPIC_ATOM_COUNT>
0

> <PUBCHEM_COMPONENT_COUNT>
1

> <PUBCHEM_CACTVS_TAUTO_COUNT>
24

> <PUBCHEM_COORDINATE_TYPE>
1
5
255

> <PUBCHEM_BONDANNOTATIONS>
23  10  5
11  12  8
11  27  8
12  13  8
13  31  8
14  32  6
24  25  8
24  26  8
25  28  8
26  29  8
27  31  8
28  30  8
29  30  8
15  9  5

$$$$
34173934
  -OEChem-10191221422D

 40 42  0     1  0  0  0  0  0999 V2000
    3.7320   -0.3240    0.0000 S   0  0  0  0  0  0  0  0  0  0  0  0
   10.3094    0.1469    0.0000 S   0  0  0  0  0  0  0  0  0  0  0  0
    6.3120    1.8887    0.0000 O   0  0  0  0  0  0  0  0  0  0  0  0
    2.8660    3.1760    0.0000 O   0  5  0  0  0  0  0  0  0  0  0  0
    4.5981    3.1760    0.0000 O   0  0  0  0  0  0  0  0  0  0  0  0
    7.5393    0.6855    0.0000 O   0  0  0  0  0  0  0  0  0  0  0  0
    6.7569   -2.2106    0.0000 O   0  0  0  0  0  0  0  0  0  0  0  0
    4.5981    1.1760    0.0000 N   0  0  0  0  0  0  0  0  0  0  0  0
    6.3120   -0.5367    0.0000 N   0  0  0  0  0  0  0  0  0  0  0  0
    7.7233   -1.9538    0.0000 N   0  0  0  0  0  0  0  0  0  0  0  0
    9.7264   -1.3625    0.0000 N   0  0  0  0  0  0  0  0  0  0  0  0
   11.4991   -1.1799    0.0000 N   0  0  0  0  0  0  0  0  0  0  0  0
    4.5981    0.1760    0.0000 C   0  0  1  0  0  0  0  0  0  0  0  0
    5.6064    0.1719    0.0000 C   0  0  1  0  0  0  0  0  0  0  0  0
    5.6064    1.1802    0.0000 C   0  0  0  0  0  0  0  0  0  0  0  0
    3.7320    1.6760    0.0000 C   0  0  0  0  0  0  0  0  0  0  0  0
    2.8660    0.1760    0.0000 C   0  0  0  0  0  0  0  0  0  0  0  0
    2.8660    1.1760    0.0000 C   0  0  0  0  0  0  0  0  0  0  0  0
    2.0000    1.6760    0.0000 C   0  0  0  0  0  0  0  0  0  0  0  0
    3.7320    2.6760    0.0000 C   0  0  0  0  0  0  0  0  0  0  0  0
    7.2785   -0.2798    0.0000 C   0  0  0  0  0  0  0  0  0  0  0  0
    7.9841   -0.9884    0.0000 C   0  0  0  0  0  0  0  0  0  0  0  0
    8.9506   -0.7316    0.0000 C   0  0  0  0  0  0  0  0  0  0  0  0
    9.3109    0.2013    0.0000 C   0  0  0  0  0  0  0  0  0  0  0  0
   10.5662   -0.8196    0.0000 C   0  0  0  0  0  0  0  0  0  0  0  0
    6.4960   -3.1760    0.0000 C   0  0  0  0  0  0  0  0  0  0  0  0
    4.8164   -0.6455    0.0000 H   0  0  0  0  0  0  0  0  0  0  0  0
    5.3673   -0.4002    0.0000 H   0  0  0  0  0  0  0  0  0  0  0  0
    2.2554    0.2837    0.0000 H   0  0  0  0  0  0  0  0  0  0  0  0
    2.6540   -0.4066    0.0000 H   0  0  0  0  0  0  0  0  0  0  0  0
    6.1503   -1.1352    0.0000 H   0  0  0  0  0  0  0  0  0  0  0  0
    2.3100    2.2130    0.0000 H   0  0  0  0  0  0  0  0  0  0  0  0
    1.4631    1.9860    0.0000 H   0  0  0  0  0  0  0  0  0  0  0  0
    1.6900    1.1391    0.0000 H   0  0  0  0  0  0  0  0  0  0  0  0
    8.9742    0.7219    0.0000 H   0  0  0  0  0  0  0  0  0  0  0  0
   11.9817   -0.7907    0.0000 H   0  0  0  0  0  0  0  0  0  0  0  0
   11.5948   -1.7924    0.0000 H   0  0  0  0  0  0  0  0  0  0  0  0
    5.8975   -3.0143    0.0000 H   0  0  0  0  0  0  0  0  0  0  0  0
    6.3344   -3.7746    0.0000 H   0  0  0  0  0  0  0  0  0  0  0  0
    7.0946   -3.3377    0.0000 H   0  0  0  0  0  0  0  0  0  0  0  0
  1 13  1  0  0  0  0
  1 17  1  0  0  0  0
  2 24  1  0  0  0  0
  2 25  1  0  0  0  0
  3 15  2  0  0  0  0
  4 20  1  0  0  0  0
  5 20  2  0  0  0  0
  6 21  2  0  0  0  0
  7 10  1  0  0  0  0
  7 26  1  0  0  0  0
  8 13  1  0  0  0  0
  8 15  1  0  0  0  0
  8 16  1  0  0  0  0
 14  9  1  1  0  0  0
  9 21  1  0  0  0  0
  9 31  1  0  0  0  0
 10 22  2  0  0  0  0
 11 23  1  0  0  0  0
 11 25  2  0  0  0  0
 12 25  1  0  0  0  0
 12 36  1  0  0  0  0
 12 37  1  0  0  0  0
 13 14  1  0  0  0  0
 13 27  1  6  0  0  0
 14 15  1  0  0  0  0
 14 28  1  0  0  0  0
 16 18  2  0  0  0  0
 16 20  1  0  0  0  0
 17 18  1  0  0  0  0
 17 29  1  0  0  0  0
 17 30  1  0  0  0  0
 18 19  1  0  0  0  0
 19 32  1  0  0  0  0
 19 33  1  0  0  0  0
 19 34  1  0  0  0  0
 21 22  1  0  0  0  0
 22 23  1  0  0  0  0
 23 24  2  0  0  0  0
 24 35  1  0  0  0  0
 26 38  1  0  0  0  0
 26 39  1  0  0  0  0
 26 40  1  0  0  0  0
M  CHG  1   4  -1
M  END
> <PUBCHEM_COMPOUND_CID>
34173934

> <PUBCHEM_COMPOUND_CANONICALIZED>
1

> <PUBCHEM_CACTVS_COMPLEXITY>
706

> <PUBCHEM_CACTVS_HBOND_ACCEPTOR>
10

> <PUBCHEM_CACTVS_HBOND_DONOR>
2

> <PUBCHEM_CACTVS_ROTATABLE_BOND>
4

> <PUBCHEM_CACTVS_SUBSKEYS>
AAADccBzuABgAAAAAAAAAAAAAABYAWAAAAAgAAAAAAAQAAABgAAAHgQUAAAADCjF1gajmRPYEAisAwXyfAAA8KlhCjkACJW4IFiCZJggxCEUEAAAFgKwASAAAAAAAAAAAAAAAAAAAAAAAAAAAAAAAAAAAA==

> <PUBCHEM_IUPAC_OPENEYE_NAME>
(6R,7R)-7-[[(2Z)-2-(2-aminothiazol-4-yl)-2-methoxyimino-acetyl]amino]-3-methyl-8-oxo-5-thia-1-azabicyclo[4.2.0]oct-2-ene-2-carboxylate

> <PUBCHEM_IUPAC_CAS_NAME>
(6R,7R)-7-[[(2Z)-2-(2-amino-4-thiazolyl)-2-methoxyimino-1-oxoethyl]amino]-3-methyl-8-oxo-5-thia-1-azabicyclo[4.2.0]oct-2-ene-2-carboxylate

> <PUBCHEM_IUPAC_NAME>
(6R,7R)-7-[[(2Z)-2-(2-amino-1,3-thiazol-4-yl)-2-methoxyiminoacetyl]amino]-3-methyl-8-oxo-5-thia-1-azabicyclo[4.2.0]oct-2-ene-2-carboxylate

> <PUBCHEM_IUPAC_SYSTEMATIC_NAME>
(6R,7R)-7-[[(2Z)-2-(2-azanyl-1,3-thiazol-4-yl)-2-methoxyimino-ethanoyl]amino]-3-methyl-8-oxidanylidene-5-thia-1-azabicyclo[4.2.0]oct-2-ene-2-carboxylate

> <PUBCHEM_IUPAC_TRADITIONAL_NAME>
(6R,7R)-7-[[(2Z)-2-(2-aminothiazol-4-yl)-2-methyloximino-acetyl]amino]-8-keto-3-methyl-5-thia-1-azabicyclo[4.2.0]oct-2-ene-2-carboxylate

> <PUBCHEM_IUPAC_INCHI>
InChI=1S/C14H15N5O5S2/c1-5-3-25-12-8(11(21)19(12)9(5)13(22)23)17-10(20)7(18-24-2)6-4-26-14(15)16-6/h4,8,12H,3H2,1-2H3,(H2,15,16)(H,17,20)(H,22,23)/p-1/b18-7-/t8-,12-/m1/s1

> <PUBCHEM_IUPAC_INCHIKEY>
MQLRYUCJDNBWMV-GHXIOONMSA-M

> <PUBCHEM_XLOGP3>
0

> <PUBCHEM_EXACT_MASS>
396.043636

> <PUBCHEM_MOLECULAR_FORMULA>
C14H14N5O5S2-

> <PUBCHEM_MOLECULAR_WEIGHT>
396.42146

> <PUBCHEM_OPENEYE_CAN_SMILES>
CC1=C(N2C(C(C2=O)NC(=O)C(=NOC)C3=CSC(=N3)N)SC1)C(=O)[O-]

> <PUBCHEM_OPENEYE_ISO_SMILES>
CC1=C(N2[C@@H]([C@@H](C2=O)NC(=O)/C(=N\OC)/C3=CSC(=N3)N)SC1)C(=O)[O-]

> <PUBCHEM_CACTVS_TPSA>
204

> <PUBCHEM_MONOISOTOPIC_WEIGHT>
396.043636

> <PUBCHEM_TOTAL_CHARGE>
-1

> <PUBCHEM_HEAVY_ATOM_COUNT>
26

> <PUBCHEM_ATOM_DEF_STEREO_COUNT>
2

> <PUBCHEM_ATOM_UDEF_STEREO_COUNT>
0

> <PUBCHEM_BOND_DEF_STEREO_COUNT>
1

> <PUBCHEM_BOND_UDEF_STEREO_COUNT>
0

> <PUBCHEM_ISOTOPIC_ATOM_COUNT>
0

> <PUBCHEM_COMPONENT_COUNT>
1

> <PUBCHEM_CACTVS_TAUTO_COUNT>
14

> <PUBCHEM_COORDINATE_TYPE>
1
5
255

> <PUBCHEM_BONDANNOTATIONS>
11  23  8
11  25  8
13  27  6
2  24  8
2  25  8
23  24  8
14  9  5

$$$$
34174055
  -OEChem-10191221422D

 26 26  0     0  0  0  0  0  0999 V2000
    4.5981    0.2315    0.0000 O   0  0  0  0  0  0  0  0  0  0  0  0
    4.5981    2.2315    0.0000 N   0  3  0  0  0  0  0  0  0  0  0  0
    3.7320    1.7315    0.0000 C   0  0  0  0  0  0  0  0  0  0  0  0
    2.8660    0.2315    0.0000 C   0  0  0  0  0  0  0  0  0  0  0  0
    3.7320    0.7315    0.0000 C   0  0  0  0  0  0  0  0  0  0  0  0
    2.8660   -0.7685    0.0000 C   0  0  0  0  0  0  0  0  0  0  0  0
    5.4641    2.7315    0.0000 C   0  0  0  0  0  0  0  0  0  0  0  0
    2.0000   -1.2685    0.0000 C   0  0  0  0  0  0  0  0  0  0  0  0
    3.7320   -1.2685    0.0000 C   0  0  0  0  0  0  0  0  0  0  0  0
    2.0000   -2.2685    0.0000 C   0  0  0  0  0  0  0  0  0  0  0  0
    3.7320   -2.2685    0.0000 C   0  0  0  0  0  0  0  0  0  0  0  0
    2.8660   -2.7685    0.0000 C   0  0  0  0  0  0  0  0  0  0  0  0
    3.5200    2.3141    0.0000 H   0  0  0  0  0  0  0  0  0  0  0  0
    3.1215    1.6239    0.0000 H   0  0  0  0  0  0  0  0  0  0  0  0
    2.6540    0.8141    0.0000 H   0  0  0  0  0  0  0  0  0  0  0  0
    2.2554    0.1239    0.0000 H   0  0  0  0  0  0  0  0  0  0  0  0
    4.2881    2.7685    0.0000 H   0  0  0  0  0  0  0  0  0  0  0  0
    4.9081    1.6946    0.0000 H   0  0  0  0  0  0  0  0  0  0  0  0
    5.7741    2.1946    0.0000 H   0  0  0  0  0  0  0  0  0  0  0  0
    6.0010    3.0415    0.0000 H   0  0  0  0  0  0  0  0  0  0  0  0
    5.1541    3.2685    0.0000 H   0  0  0  0  0  0  0  0  0  0  0  0
    1.4631   -0.9585    0.0000 H   0  0  0  0  0  0  0  0  0  0  0  0
    4.2690   -0.9585    0.0000 H   0  0  0  0  0  0  0  0  0  0  0  0
    1.4631   -2.5785    0.0000 H   0  0  0  0  0  0  0  0  0  0  0  0
    4.2690   -2.5785    0.0000 H   0  0  0  0  0  0  0  0  0  0  0  0
    2.8660   -3.3885    0.0000 H   0  0  0  0  0  0  0  0  0  0  0  0
  1  5  2  0  0  0  0
  2  3  1  0  0  0  0
  2  7  1  0  0  0  0
  2 17  1  0  0  0  0
  2 18  1  0  0  0  0
  3  5  1  0  0  0  0
  3 13  1  0  0  0  0
  3 14  1  0  0  0  0
  4  5  1  0  0  0  0
  4  6  1  0  0  0  0
  4 15  1  0  0  0  0
  4 16  1  0  0  0  0
  6  8  2  0  0  0  0
  6  9  1  0  0  0  0
  7 19  1  0  0  0  0
  7 20  1  0  0  0  0
  7 21  1  0  0  0  0
  8 10  1  0  0  0  0
  8 22  1  0  0  0  0
  9 11  2  0  0  0  0
  9 23  1  0  0  0  0
 10 12  2  0  0  0  0
 10 24  1  0  0  0  0
 11 12  1  0  0  0  0
 11 25  1  0  0  0  0
 12 26  1  0  0  0  0
M  CHG  1   2   1
M  END
> <PUBCHEM_COMPOUND_CID>
34174055

> <PUBCHEM_COMPOUND_CANONICALIZED>
1

> <PUBCHEM_CACTVS_COMPLEXITY>
139

> <PUBCHEM_CACTVS_HBOND_ACCEPTOR>
1

> <PUBCHEM_CACTVS_HBOND_DONOR>
1

> <PUBCHEM_CACTVS_ROTATABLE_BOND>
4

> <PUBCHEM_CACTVS_SUBSKEYS>
AAADccByIAAAAAAAAAAAAAAAAAAAAAAAAAAwAAAAAAAAAAABAAAAHgAQAAAADATBmAQyAILAAACIAqBSAAACAAAgAAAIiIGIAIgIIDKAlTCEIAAggAAIiAcYiICOAAAAAAAAAAAAAAAAAAAAAAAAAAAAAA==

> <PUBCHEM_IUPAC_OPENEYE_NAME>
methyl-(2-oxo-3-phenyl-propyl)ammonium

> <PUBCHEM_IUPAC_CAS_NAME>
methyl-(2-oxo-3-phenylpropyl)ammonium

> <PUBCHEM_IUPAC_NAME>
methyl-(2-oxo-3-phenylpropyl)azanium

> <PUBCHEM_IUPAC_SYSTEMATIC_NAME>
methyl-(2-oxidanylidene-3-phenyl-propyl)azanium

> <PUBCHEM_IUPAC_TRADITIONAL_NAME>
(2-keto-3-phenyl-propyl)-methyl-ammonium

> <PUBCHEM_IUPAC_INCHI>
InChI=1S/C10H13NO/c1-11-8-10(12)7-9-5-3-2-4-6-9/h2-6,11H,7-8H2,1H3/p+1

> <PUBCHEM_IUPAC_INCHIKEY>
RSQMPBUCVJKLAI-UHFFFAOYSA-O

> <PUBCHEM_XLOGP3>
1

> <PUBCHEM_EXACT_MASS>
164.107539

> <PUBCHEM_MOLECULAR_FORMULA>
C10H14NO+

> <PUBCHEM_MOLECULAR_WEIGHT>
164.22426

> <PUBCHEM_OPENEYE_CAN_SMILES>
C[NH2+]CC(=O)CC1=CC=CC=C1

> <PUBCHEM_OPENEYE_ISO_SMILES>
C[NH2+]CC(=O)CC1=CC=CC=C1

> <PUBCHEM_CACTVS_TPSA>
33.7

> <PUBCHEM_MONOISOTOPIC_WEIGHT>
164.107539

> <PUBCHEM_TOTAL_CHARGE>
1

> <PUBCHEM_HEAVY_ATOM_COUNT>
12

> <PUBCHEM_ATOM_DEF_STEREO_COUNT>
0

> <PUBCHEM_ATOM_UDEF_STEREO_COUNT>
0

> <PUBCHEM_BOND_DEF_STEREO_COUNT>
0

> <PUBCHEM_BOND_UDEF_STEREO_COUNT>
0

> <PUBCHEM_ISOTOPIC_ATOM_COUNT>
0

> <PUBCHEM_COMPONENT_COUNT>
1

> <PUBCHEM_CACTVS_TAUTO_COUNT>
3

> <PUBCHEM_COORDINATE_TYPE>
1
5
255

> <PUBCHEM_BONDANNOTATIONS>
10  12  8
11  12  8
6  8  8
6  9  8
8  10  8
9  11  8

$$$$
34174356
  -OEChem-10191221422D

 53 56  0     1  0  0  0  0  0999 V2000
    7.0884   -0.7672    0.0000 O   0  0  0  0  0  0  0  0  0  0  0  0
    3.9318    0.9752    0.0000 N   0  3  0  0  0  0  0  0  0  0  0  0
    6.3813    0.4576    0.0000 C   0  0  1  0  0  0  0  0  0  0  0  0
    8.1134    1.4576    0.0000 C   0  0  2  0  0  0  0  0  0  0  0  0
    8.3722    2.4235    0.0000 C   0  0  1  0  0  0  0  0  0  0  0  0
    5.8813    1.3236    0.0000 C   0  0  0  0  0  0  0  0  0  0  0  0
    7.6356    3.4061    0.0000 C   0  0  0  0  0  0  0  0  0  0  0  0
    6.1225   -0.5083    0.0000 C   0  0  2  0  0  0  0  0  0  0  0  0
    9.9453    0.6988    0.0000 C   0  0  0  0  0  0  0  0  0  0  0  0
   10.2042    1.6647    0.0000 C   0  0  0  0  0  0  0  0  0  0  0  0
    5.1566   -0.2495    0.0000 C   0  0  0  0  0  0  0  0  0  0  0  0
    4.8978    0.7164    0.0000 C   0  0  0  0  0  0  0  0  0  0  0  0
    5.8637   -1.4743    0.0000 C   0  0  0  0  0  0  0  0  0  0  0  0
    3.2247    1.6823    0.0000 C   0  0  0  0  0  0  0  0  0  0  0  0
    3.6730    0.0093    0.0000 C   0  0  0  0  0  0  0  0  0  0  0  0
    2.7071   -0.2495    0.0000 C   0  0  0  0  0  0  0  0  0  0  0  0
    2.2588    1.4235    0.0000 C   0  0  0  0  0  0  0  0  0  0  0  0
    2.0000    0.4576    0.0000 C   0  0  0  0  0  0  0  0  0  0  0  0
    6.5708   -2.1814    0.0000 C   0  0  0  0  0  0  0  0  0  0  0  0
    4.8978   -1.7331    0.0000 C   0  0  0  0  0  0  0  0  0  0  0  0
    6.3120   -3.1473    0.0000 C   0  0  0  0  0  0  0  0  0  0  0  0
    4.6390   -2.6990    0.0000 C   0  0  0  0  0  0  0  0  0  0  0  0
    5.3461   -3.4061    0.0000 C   0  0  0  0  0  0  0  0  0  0  0  0
    5.5386    0.3466    0.0000 H   0  0  0  0  0  0  0  0  0  0  0  0
    7.8934    0.6365    0.0000 H   0  0  0  0  0  0  0  0  0  0  0  0
    8.5922    3.2445    0.0000 H   0  0  0  0  0  0  0  0  0  0  0  0
    5.6107    1.8814    0.0000 H   0  0  0  0  0  0  0  0  0  0  0  0
    5.3336    1.0331    0.0000 H   0  0  0  0  0  0  0  0  0  0  0  0
    7.9534    3.9385    0.0000 H   0  0  0  0  0  0  0  0  0  0  0  0
    7.0224    3.4981    0.0000 H   0  0  0  0  0  0  0  0  0  0  0  0
   10.2196    0.1427    0.0000 H   0  0  0  0  0  0  0  0  0  0  0  0
    4.5390   -0.3036    0.0000 H   0  0  0  0  0  0  0  0  0  0  0  0
    5.1026   -0.8672    0.0000 H   0  0  0  0  0  0  0  0  0  0  0  0
   10.7602    1.9389    0.0000 H   0  0  0  0  0  0  0  0  0  0  0  0
    5.5154    0.7704    0.0000 H   0  0  0  0  0  0  0  0  0  0  0  0
    4.9518    1.3340    0.0000 H   0  0  0  0  0  0  0  0  0  0  0  0
    4.6390    1.6823    0.0000 H   0  0  0  0  0  0  0  0  0  0  0  0
    3.7326    2.0379    0.0000 H   0  0  0  0  0  0  0  0  0  0  0  0
    2.9627    2.2442    0.0000 H   0  0  0  0  0  0  0  0  0  0  0  0
    3.7271   -0.6083    0.0000 H   0  0  0  0  0  0  0  0  0  0  0  0
    4.2907   -0.0447    0.0000 H   0  0  0  0  0  0  0  0  0  0  0  0
    7.2489   -1.3660    0.0000 H   0  0  0  0  0  0  0  0  0  0  0  0
    2.2048    2.0412    0.0000 H   0  0  0  0  0  0  0  0  0  0  0  0
    2.1992   -0.6051    0.0000 H   0  0  0  0  0  0  0  0  0  0  0  0
    2.9691   -0.8114    0.0000 H   0  0  0  0  0  0  0  0  0  0  0  0
    1.6412    1.4775    0.0000 H   0  0  0  0  0  0  0  0  0  0  0  0
    1.4381    0.7196    0.0000 H   0  0  0  0  0  0  0  0  0  0  0  0
    1.6444   -0.0503    0.0000 H   0  0  0  0  0  0  0  0  0  0  0  0
    7.1697   -2.0209    0.0000 H   0  0  0  0  0  0  0  0  0  0  0  0
    4.4594   -1.2947    0.0000 H   0  0  0  0  0  0  0  0  0  0  0  0
    6.7504   -3.5857    0.0000 H   0  0  0  0  0  0  0  0  0  0  0  0
    4.0401   -2.8595    0.0000 H   0  0  0  0  0  0  0  0  0  0  0  0
    5.1856   -4.0050    0.0000 H   0  0  0  0  0  0  0  0  0  0  0  0
  8  1  1  1  0  0  0
  1 42  1  0  0  0  0
  2 12  1  0  0  0  0
  2 14  1  0  0  0  0
  2 15  1  0  0  0  0
  2 37  1  0  0  0  0
  3  4  1  0  0  0  0
  3  6  1  0  0  0  0
  3  8  1  0  0  0  0
  3 24  1  1  0  0  0
  4  7  1  0  0  0  0
  4  9  1  0  0  0  0
  4 25  1  1  0  0  0
  5  6  1  0  0  0  0
  5  7  1  0  0  0  0
  5 10  1  0  0  0  0
  5 26  1  6  0  0  0
  6 27  1  0  0  0  0
  6 28  1  0  0  0  0
  7 29  1  0  0  0  0
  7 30  1  0  0  0  0
  8 11  1  0  0  0  0
  8 13  1  0  0  0  0
  9 10  2  0  0  0  0
  9 31  1  0  0  0  0
 10 34  1  0  0  0  0
 11 12  1  0  0  0  0
 11 32  1  0  0  0  0
 11 33  1  0  0  0  0
 12 35  1  0  0  0  0
 12 36  1  0  0  0  0
 13 19  2  0  0  0  0
 13 20  1  0  0  0  0
 14 17  1  0  0  0  0
 14 38  1  0  0  0  0
 14 39  1  0  0  0  0
 15 16  1  0  0  0  0
 15 40  1  0  0  0  0
 15 41  1  0  0  0  0
 16 18  1  0  0  0  0
 16 44  1  0  0  0  0
 16 45  1  0  0  0  0
 17 18  1  0  0  0  0
 17 43  1  0  0  0  0
 17 46  1  0  0  0  0
 18 47  1  0  0  0  0
 18 48  1  0  0  0  0
 19 21  1  0  0  0  0
 19 49  1  0  0  0  0
 20 22  2  0  0  0  0
 20 50  1  0  0  0  0
 21 23  2  0  0  0  0
 21 51  1  0  0  0  0
 22 23  1  0  0  0  0
 22 52  1  0  0  0  0
 23 53  1  0  0  0  0
M  CHG  1   2   1
M  END
> <PUBCHEM_COMPOUND_CID>
34174356

> <PUBCHEM_COMPOUND_CANONICALIZED>
1

> <PUBCHEM_CACTVS_COMPLEXITY>
422

> <PUBCHEM_CACTVS_HBOND_ACCEPTOR>
1

> <PUBCHEM_CACTVS_HBOND_DONOR>
2

> <PUBCHEM_CACTVS_ROTATABLE_BOND>
5

> <PUBCHEM_CACTVS_SUBSKEYS>
AAADceB6IAAAAAAAAAAAAAAAAAAAAYIAAAA8QIAAAAAAAAABAAAAHgAQCAAADUTBmAQwAIPAAgCAAiBCAAACAAAgAAAIiIAICIgIJiKAkRCEcAAm0AGImAeQwPAOgAAAAAAAAAAAAAAAAAAAAQAACAAAAA==

> <PUBCHEM_IUPAC_OPENEYE_NAME>
(1S)-1-[(1R,4R,5R)-5-bicyclo[2.2.1]hept-2-enyl]-1-phenyl-3-piperidin-1-ium-1-yl-propan-1-ol

> <PUBCHEM_IUPAC_CAS_NAME>
(1S)-1-[(1R,4R,5R)-5-bicyclo[2.2.1]hept-2-enyl]-1-phenyl-3-(1-piperidin-1-iumyl)-1-propanol

> <PUBCHEM_IUPAC_NAME>
(1S)-1-[(1R,4R,5R)-5-bicyclo[2.2.1]hept-2-enyl]-1-phenyl-3-piperidin-1-ium-1-ylpropan-1-ol

> <PUBCHEM_IUPAC_SYSTEMATIC_NAME>
(1S)-1-[(1R,4R,5R)-5-bicyclo[2.2.1]hept-2-enyl]-1-phenyl-3-piperidin-1-ium-1-yl-propan-1-ol

> <PUBCHEM_IUPAC_TRADITIONAL_NAME>
(1S)-1-[(1R,4R,5R)-5-bicyclo[2.2.1]hept-2-enyl]-1-phenyl-3-piperidin-1-ium-1-yl-propan-1-ol

> <PUBCHEM_IUPAC_INCHI>
InChI=1S/C21H29NO/c23-21(19-7-3-1-4-8-19,11-14-22-12-5-2-6-13-22)20-16-17-9-10-18(20)15-17/h1,3-4,7-10,17-18,20,23H,2,5-6,11-16H2/p+1/t17-,18+,20-,21-/m1/s1

> <PUBCHEM_IUPAC_INCHIKEY>
YSXKPIUOCJLQIE-KOUHRCEDSA-O

> <PUBCHEM_XLOGP3>
4.3

> <PUBCHEM_EXACT_MASS>
312.23274

> <PUBCHEM_MOLECULAR_FORMULA>
C21H30NO+

> <PUBCHEM_MOLECULAR_WEIGHT>
312.469

> <PUBCHEM_OPENEYE_CAN_SMILES>
C1CC[NH+](CC1)CCC(C2CC3CC2C=C3)(C4=CC=CC=C4)O

> <PUBCHEM_OPENEYE_ISO_SMILES>
C1CC[NH+](CC1)CC[C@]([C@@H]2C[C@H]3C[C@@H]2C=C3)(C4=CC=CC=C4)O

> <PUBCHEM_CACTVS_TPSA>
24.7

> <PUBCHEM_MONOISOTOPIC_WEIGHT>
312.23274

> <PUBCHEM_TOTAL_CHARGE>
1

> <PUBCHEM_HEAVY_ATOM_COUNT>
23

> <PUBCHEM_ATOM_DEF_STEREO_COUNT>
4

> <PUBCHEM_ATOM_UDEF_STEREO_COUNT>
0

> <PUBCHEM_BOND_DEF_STEREO_COUNT>
0

> <PUBCHEM_BOND_UDEF_STEREO_COUNT>
0

> <PUBCHEM_ISOTOPIC_ATOM_COUNT>
0

> <PUBCHEM_COMPONENT_COUNT>
1

> <PUBCHEM_CACTVS_TAUTO_COUNT>
1

> <PUBCHEM_COORDINATE_TYPE>
1
5
255

> <PUBCHEM_BONDANNOTATIONS>
8  1  5
13  19  8
13  20  8
19  21  8
20  22  8
21  23  8
22  23  8
3  24  5
4  25  5
5  26  6

$$$$
