52101796
  -OEChem-11301218012D

 26 26  0     1  0  0  0  0  0999 V2000
    3.7320    2.8170    0.0000 Cl  0  0  0  0  0  0  0  0  0  0  0  0
    6.3301    3.3170    0.0000 Cl  0  0  0  0  0  0  0  0  0  0  0  0
    4.9641    3.6830    0.0000 Cl  0  0  0  0  0  0  0  0  0  0  0  0
    5.9641    1.9510    0.0000 Cl  0  0  0  0  0  0  0  0  0  0  0  0
    2.8660    1.3170    0.0000 O   0  0  0  0  0  0  0  0  0  0  0  0
    4.5981    1.3170    0.0000 N   0  0  0  0  0  0  0  0  0  0  0  0
    4.5981    2.3170    0.0000 C   0  0  1  0  0  0  0  0  0  0  0  0
    2.8660   -1.6830    0.0000 C   0  0  0  0  0  0  0  0  0  0  0  0
    5.4641    2.8170    0.0000 C   0  0  0  0  0  0  0  0  0  0  0  0
    3.7320    0.8170    0.0000 C   0  0  0  0  0  0  0  0  0  0  0  0
    2.8660   -0.6830    0.0000 C   0  0  0  0  0  0  0  0  0  0  0  0
    3.7320   -0.1830    0.0000 C   0  0  0  0  0  0  0  0  0  0  0  0
    2.0000   -2.1830    0.0000 C   0  0  0  0  0  0  0  0  0  0  0  0
    3.7320   -2.1830    0.0000 C   0  0  0  0  0  0  0  0  0  0  0  0
    2.0000   -3.1830    0.0000 C   0  0  0  0  0  0  0  0  0  0  0  0
    3.7320   -3.1830    0.0000 C   0  0  0  0  0  0  0  0  0  0  0  0
    2.8660   -3.6830    0.0000 C   0  0  0  0  0  0  0  0  0  0  0  0
    5.1350    2.0070    0.0000 H   0  0  0  0  0  0  0  0  0  0  0  0
    5.1350    1.0070    0.0000 H   0  0  0  0  0  0  0  0  0  0  0  0
    2.3291   -0.3730    0.0000 H   0  0  0  0  0  0  0  0  0  0  0  0
    4.2690   -0.4930    0.0000 H   0  0  0  0  0  0  0  0  0  0  0  0
    1.4631   -1.8730    0.0000 H   0  0  0  0  0  0  0  0  0  0  0  0
    4.2690   -1.8730    0.0000 H   0  0  0  0  0  0  0  0  0  0  0  0
    1.4631   -3.4930    0.0000 H   0  0  0  0  0  0  0  0  0  0  0  0
    4.2690   -3.4930    0.0000 H   0  0  0  0  0  0  0  0  0  0  0  0
    2.8660   -4.3030    0.0000 H   0  0  0  0  0  0  0  0  0  0  0  0
  1  7  1  0  0  0  0
  2  9  1  0  0  0  0
  3  9  1  0  0  0  0
  4  9  1  0  0  0  0
  5 10  2  0  0  0  0
  7  6  1  6  0  0  0
  6 10  1  0  0  0  0
  6 19  1  0  0  0  0
  7  9  1  0  0  0  0
  7 18  1  0  0  0  0
  8 11  1  0  0  0  0
  8 13  2  0  0  0  0
  8 14  1  0  0  0  0
 10 12  1  0  0  0  0
 11 12  2  0  0  0  0
 11 20  1  0  0  0  0
 12 21  1  0  0  0  0
 13 15  1  0  0  0  0
 13 22  1  0  0  0  0
 14 16  2  0  0  0  0
 14 23  1  0  0  0  0
 15 17  2  0  0  0  0
 15 24  1  0  0  0  0
 16 17  1  0  0  0  0
 16 25  1  0  0  0  0
 17 26  1  0  0  0  0
M  END
> <PUBCHEM_COMPOUND_CID>
52101796

> <PUBCHEM_COMPOUND_CANONICALIZED>
1

> <PUBCHEM_CACTVS_COMPLEXITY>
282

> <PUBCHEM_CACTVS_HBOND_ACCEPTOR>
1

> <PUBCHEM_CACTVS_HBOND_DONOR>
1

> <PUBCHEM_CACTVS_ROTATABLE_BOND>
3

> <PUBCHEM_CACTVS_SUBSKEYS>
AAADccByIAAHAAAAAAAAAAAAAAAAAAAAAAAwAAAAAAAAAAABAAAAHgIQAAAADAPBmMQwAILAAACIAiFSEACCAAAgAAAIiMAIAMgIICKAERDAIAAglgCIiYcAgAAOAAAAAAAAAAAAAAAAAAAAAAAAAAAAAA==

> <PUBCHEM_IUPAC_OPENEYE_NAME>
(E)-3-phenyl-N-[(1R)-1,2,2,2-tetrachloroethyl]prop-2-enamide

> <PUBCHEM_IUPAC_CAS_NAME>
(E)-3-phenyl-N-[(1R)-1,2,2,2-tetrachloroethyl]-2-propenamide

> <PUBCHEM_IUPAC_NAME>
(E)-3-phenyl-N-[(1R)-1,2,2,2-tetrachloroethyl]prop-2-enamide

> <PUBCHEM_IUPAC_SYSTEMATIC_NAME>
(E)-3-phenyl-N-[(1R)-1,2,2,2-tetrakis(chloranyl)ethyl]prop-2-enamide

> <PUBCHEM_IUPAC_TRADITIONAL_NAME>
(E)-3-phenyl-N-[(1R)-1,2,2,2-tetrachloroethyl]acrylamide

> <PUBCHEM_IUPAC_INCHI>
InChI=1S/C11H9Cl4NO/c12-10(11(13,14)15)16-9(17)7-6-8-4-2-1-3-5-8/h1-7,10H,(H,16,17)/b7-6+/t10-/m0/s1

> <PUBCHEM_IUPAC_INCHIKEY>
JKEZTWPLBJRQOJ-FGEFZZPRSA-N

> <PUBCHEM_XLOGP3>
4.1

> <PUBCHEM_EXACT_MASS>
312.940875

> <PUBCHEM_MOLECULAR_FORMULA>
C11H9Cl4NO

> <PUBCHEM_MOLECULAR_WEIGHT>
313.00726

> <PUBCHEM_OPENEYE_CAN_SMILES>
C1=CC=C(C=C1)C=CC(=O)NC(C(Cl)(Cl)Cl)Cl

> <PUBCHEM_OPENEYE_ISO_SMILES>
C1=CC=C(C=C1)/C=C/C(=O)N[C@@H](C(Cl)(Cl)Cl)Cl

> <PUBCHEM_CACTVS_TPSA>
29.1

> <PUBCHEM_MONOISOTOPIC_WEIGHT>
310.943825

> <PUBCHEM_TOTAL_CHARGE>
0

> <PUBCHEM_HEAVY_ATOM_COUNT>
17

> <PUBCHEM_ATOM_DEF_STEREO_COUNT>
1

> <PUBCHEM_ATOM_UDEF_STEREO_COUNT>
0

> <PUBCHEM_BOND_DEF_STEREO_COUNT>
1

> <PUBCHEM_BOND_UDEF_STEREO_COUNT>
0

> <PUBCHEM_ISOTOPIC_ATOM_COUNT>
0

> <PUBCHEM_COMPONENT_COUNT>
1

> <PUBCHEM_CACTVS_TAUTO_COUNT>
2

> <PUBCHEM_COORDINATE_TYPE>
1
5
255

> <PUBCHEM_BONDANNOTATIONS>
13  15  8
14  16  8
15  17  8
16  17  8
7  6  6
8  13  8
8  14  8

$$$$
52101797
  -OEChem-11301218012D

 26 26  0     1  0  0  0  0  0999 V2000
    3.7320    2.8170    0.0000 Cl  0  0  0  0  0  0  0  0  0  0  0  0
    6.3301    3.3170    0.0000 Cl  0  0  0  0  0  0  0  0  0  0  0  0
    4.9641    3.6830    0.0000 Cl  0  0  0  0  0  0  0  0  0  0  0  0
    5.9641    1.9510    0.0000 Cl  0  0  0  0  0  0  0  0  0  0  0  0
    2.8660    1.3170    0.0000 O   0  0  0  0  0  0  0  0  0  0  0  0
    4.5981    1.3170    0.0000 N   0  0  0  0  0  0  0  0  0  0  0  0
    4.5981    2.3170    0.0000 C   0  0  2  0  0  0  0  0  0  0  0  0
    2.8660   -1.6830    0.0000 C   0  0  0  0  0  0  0  0  0  0  0  0
    5.4641    2.8170    0.0000 C   0  0  0  0  0  0  0  0  0  0  0  0
    3.7320    0.8170    0.0000 C   0  0  0  0  0  0  0  0  0  0  0  0
    2.8660   -0.6830    0.0000 C   0  0  0  0  0  0  0  0  0  0  0  0
    3.7320   -0.1830    0.0000 C   0  0  0  0  0  0  0  0  0  0  0  0
    2.0000   -2.1830    0.0000 C   0  0  0  0  0  0  0  0  0  0  0  0
    3.7320   -2.1830    0.0000 C   0  0  0  0  0  0  0  0  0  0  0  0
    2.0000   -3.1830    0.0000 C   0  0  0  0  0  0  0  0  0  0  0  0
    3.7320   -3.1830    0.0000 C   0  0  0  0  0  0  0  0  0  0  0  0
    2.8660   -3.6830    0.0000 C   0  0  0  0  0  0  0  0  0  0  0  0
    5.1350    2.0070    0.0000 H   0  0  0  0  0  0  0  0  0  0  0  0
    5.1350    1.0070    0.0000 H   0  0  0  0  0  0  0  0  0  0  0  0
    2.3291   -0.3730    0.0000 H   0  0  0  0  0  0  0  0  0  0  0  0
    4.2690   -0.4930    0.0000 H   0  0  0  0  0  0  0  0  0  0  0  0
    1.4631   -1.8730    0.0000 H   0  0  0  0  0  0  0  0  0  0  0  0
    4.2690   -1.8730    0.0000 H   0  0  0  0  0  0  0  0  0  0  0  0
    1.4631   -3.4930    0.0000 H   0  0  0  0  0  0  0  0  0  0  0  0
    4.2690   -3.4930    0.0000 H   0  0  0  0  0  0  0  0  0  0  0  0
    2.8660   -4.3030    0.0000 H   0  0  0  0  0  0  0  0  0  0  0  0
  1  7  1  0  0  0  0
  2  9  1  0  0  0  0
  3  9  1  0  0  0  0
  4  9  1  0  0  0  0
  5 10  2  0  0  0  0
  7  6  1  1  0  0  0
  6 10  1  0  0  0  0
  6 19  1  0  0  0  0
  7  9  1  0  0  0  0
  7 18  1  0  0  0  0
  8 11  1  0  0  0  0
  8 13  2  0  0  0  0
  8 14  1  0  0  0  0
 10 12  1  0  0  0  0
 11 12  2  0  0  0  0
 11 20  1  0  0  0  0
 12 21  1  0  0  0  0
 13 15  1  0  0  0  0
 13 22  1  0  0  0  0
 14 16  2  0  0  0  0
 14 23  1  0  0  0  0
 15 17  2  0  0  0  0
 15 24  1  0  0  0  0
 16 17  1  0  0  0  0
 16 25  1  0  0  0  0
 17 26  1  0  0  0  0
M  END
> <PUBCHEM_COMPOUND_CID>
52101797

> <PUBCHEM_COMPOUND_CANONICALIZED>
1

> <PUBCHEM_CACTVS_COMPLEXITY>
282

> <PUBCHEM_CACTVS_HBOND_ACCEPTOR>
1

> <PUBCHEM_CACTVS_HBOND_DONOR>
1

> <PUBCHEM_CACTVS_ROTATABLE_BOND>
3

> <PUBCHEM_CACTVS_SUBSKEYS>
AAADccByIAAHAAAAAAAAAAAAAAAAAAAAAAAwAAAAAAAAAAABAAAAHgIQAAAADAPBmMQwAILAAACIAiFSEACCAAAgAAAIiMAIAMgIICKAERDAIAAglgCIiYcAgAAOAAAAAAAAAAAAAAAAAAAAAAAAAAAAAA==

> <PUBCHEM_IUPAC_OPENEYE_NAME>
(E)-3-phenyl-N-[(1S)-1,2,2,2-tetrachloroethyl]prop-2-enamide

> <PUBCHEM_IUPAC_CAS_NAME>
(E)-3-phenyl-N-[(1S)-1,2,2,2-tetrachloroethyl]-2-propenamide

> <PUBCHEM_IUPAC_NAME>
(E)-3-phenyl-N-[(1S)-1,2,2,2-tetrachloroethyl]prop-2-enamide

> <PUBCHEM_IUPAC_SYSTEMATIC_NAME>
(E)-3-phenyl-N-[(1S)-1,2,2,2-tetrakis(chloranyl)ethyl]prop-2-enamide

> <PUBCHEM_IUPAC_TRADITIONAL_NAME>
(E)-3-phenyl-N-[(1S)-1,2,2,2-tetrachloroethyl]acrylamide

> <PUBCHEM_IUPAC_INCHI>
InChI=1S/C11H9Cl4NO/c12-10(11(13,14)15)16-9(17)7-6-8-4-2-1-3-5-8/h1-7,10H,(H,16,17)/b7-6+/t10-/m1/s1

> <PUBCHEM_IUPAC_INCHIKEY>
JKEZTWPLBJRQOJ-VQCYPWCPSA-N

> <PUBCHEM_XLOGP3>
4.1

> <PUBCHEM_EXACT_MASS>
312.940875

> <PUBCHEM_MOLECULAR_FORMULA>
C11H9Cl4NO

> <PUBCHEM_MOLECULAR_WEIGHT>
313.00726

> <PUBCHEM_OPENEYE_CAN_SMILES>
C1=CC=C(C=C1)C=CC(=O)NC(C(Cl)(Cl)Cl)Cl

> <PUBCHEM_OPENEYE_ISO_SMILES>
C1=CC=C(C=C1)/C=C/C(=O)N[C@H](C(Cl)(Cl)Cl)Cl

> <PUBCHEM_CACTVS_TPSA>
29.1

> <PUBCHEM_MONOISOTOPIC_WEIGHT>
310.943825

> <PUBCHEM_TOTAL_CHARGE>
0

> <PUBCHEM_HEAVY_ATOM_COUNT>
17

> <PUBCHEM_ATOM_DEF_STEREO_COUNT>
1

> <PUBCHEM_ATOM_UDEF_STEREO_COUNT>
0

> <PUBCHEM_BOND_DEF_STEREO_COUNT>
1

> <PUBCHEM_BOND_UDEF_STEREO_COUNT>
0

> <PUBCHEM_ISOTOPIC_ATOM_COUNT>
0

> <PUBCHEM_COMPONENT_COUNT>
1

> <PUBCHEM_CACTVS_TAUTO_COUNT>
2

> <PUBCHEM_COORDINATE_TYPE>
1
5
255

> <PUBCHEM_BONDANNOTATIONS>
13  15  8
14  16  8
15  17  8
16  17  8
7  6  5
8  13  8
8  14  8

$$$$
52112477
  -OEChem-11301218022D

 33 34  0     0  0  0  0  0  0999 V2000
    3.7320   -1.0000    0.0000 O   0  0  0  0  0  0  0  0  0  0  0  0
    4.5981    3.5000    0.0000 N   0  3  0  0  0  0  0  0  0  0  0  0
    2.8660   -1.5000    0.0000 C   0  0  0  0  0  0  0  0  0  0  0  0
    2.8660   -2.5000    0.0000 C   0  0  0  0  0  0  0  0  0  0  0  0
    3.7320    0.0000    0.0000 C   0  0  0  0  0  0  0  0  0  0  0  0
    3.7320    2.0000    0.0000 C   0  0  0  0  0  0  0  0  0  0  0  0
    2.8660    0.5000    0.0000 C   0  0  0  0  0  0  0  0  0  0  0  0
    4.5981    0.5000    0.0000 C   0  0  0  0  0  0  0  0  0  0  0  0
    2.8660    1.5000    0.0000 C   0  0  0  0  0  0  0  0  0  0  0  0
    4.5981    1.5000    0.0000 C   0  0  0  0  0  0  0  0  0  0  0  0
    2.0000   -3.0000    0.0000 C   0  0  0  0  0  0  0  0  0  0  0  0
    3.7320   -3.0000    0.0000 C   0  0  0  0  0  0  0  0  0  0  0  0
    2.0000   -4.0000    0.0000 C   0  0  0  0  0  0  0  0  0  0  0  0
    3.7320   -4.0000    0.0000 C   0  0  0  0  0  0  0  0  0  0  0  0
    3.7320    3.0000    0.0000 C   0  0  0  0  0  0  0  0  0  0  0  0
    2.8660   -4.5000    0.0000 C   0  0  0  0  0  0  0  0  0  0  0  0
    4.5981    4.5000    0.0000 C   0  0  0  0  0  0  0  0  0  0  0  0
    2.6540   -0.9174    0.0000 H   0  0  0  0  0  0  0  0  0  0  0  0
    2.2554   -1.6077    0.0000 H   0  0  0  0  0  0  0  0  0  0  0  0
    2.3291    0.1900    0.0000 H   0  0  0  0  0  0  0  0  0  0  0  0
    5.1350    0.1900    0.0000 H   0  0  0  0  0  0  0  0  0  0  0  0
    2.3291    1.8100    0.0000 H   0  0  0  0  0  0  0  0  0  0  0  0
    5.1350    1.8100    0.0000 H   0  0  0  0  0  0  0  0  0  0  0  0
    1.4631   -2.6900    0.0000 H   0  0  0  0  0  0  0  0  0  0  0  0
    4.2690   -2.6900    0.0000 H   0  0  0  0  0  0  0  0  0  0  0  0
    3.1951    3.3100    0.0000 H   0  0  0  0  0  0  0  0  0  0  0  0
    1.4631   -4.3100    0.0000 H   0  0  0  0  0  0  0  0  0  0  0  0
    4.2690   -4.3100    0.0000 H   0  0  0  0  0  0  0  0  0  0  0  0
    2.8660   -5.1200    0.0000 H   0  0  0  0  0  0  0  0  0  0  0  0
    5.1350    3.1900    0.0000 H   0  0  0  0  0  0  0  0  0  0  0  0
    5.2181    4.5000    0.0000 H   0  0  0  0  0  0  0  0  0  0  0  0
    4.5981    5.1200    0.0000 H   0  0  0  0  0  0  0  0  0  0  0  0
    3.9781    4.5000    0.0000 H   0  0  0  0  0  0  0  0  0  0  0  0
  1  3  1  0  0  0  0
  1  5  1  0  0  0  0
  2 15  2  0  0  0  0
  2 17  1  0  0  0  0
  2 30  1  0  0  0  0
  3  4  1  0  0  0  0
  3 18  1  0  0  0  0
  3 19  1  0  0  0  0
  4 11  2  0  0  0  0
  4 12  1  0  0  0  0
  5  7  2  0  0  0  0
  5  8  1  0  0  0  0
  6  9  2  0  0  0  0
  6 10  1  0  0  0  0
  6 15  1  0  0  0  0
  7  9  1  0  0  0  0
  7 20  1  0  0  0  0
  8 10  2  0  0  0  0
  8 21  1  0  0  0  0
  9 22  1  0  0  0  0
 10 23  1  0  0  0  0
 11 13  1  0  0  0  0
 11 24  1  0  0  0  0
 12 14  2  0  0  0  0
 12 25  1  0  0  0  0
 13 16  2  0  0  0  0
 13 27  1  0  0  0  0
 14 16  1  0  0  0  0
 14 28  1  0  0  0  0
 15 26  1  0  0  0  0
 16 29  1  0  0  0  0
 17 31  1  0  0  0  0
 17 32  1  0  0  0  0
 17 33  1  0  0  0  0
M  CHG  1   2   1
M  END
> <PUBCHEM_COMPOUND_CID>
52112477

> <PUBCHEM_COMPOUND_CANONICALIZED>
1

> <PUBCHEM_CACTVS_COMPLEXITY>
225

> <PUBCHEM_CACTVS_HBOND_ACCEPTOR>
1

> <PUBCHEM_CACTVS_HBOND_DONOR>
1

> <PUBCHEM_CACTVS_ROTATABLE_BOND>
4

> <PUBCHEM_CACTVS_SUBSKEYS>
AAADceByIAAAAAAAAAAAAAAAAAAAAAAAAAAwYAAAAAAAAAABQAAAHgAQAAAADAThmAYyBoLABACgAjBjBAACCAAgIAAIiIAmCJgMJqKEMRqCOCCkwBEIqAeAwCAOIAAAAAAAAABAAAAAAAAAAAAAAAAAAA==

> <PUBCHEM_IUPAC_OPENEYE_NAME>
(4-benzyloxyphenyl)methylene-methyl-ammonium

> <PUBCHEM_IUPAC_CAS_NAME>
methyl-[(4-phenylmethoxyphenyl)methylidene]ammonium

> <PUBCHEM_IUPAC_NAME>
methyl-[(4-phenylmethoxyphenyl)methylidene]azanium

> <PUBCHEM_IUPAC_SYSTEMATIC_NAME>
methyl-[(4-phenylmethoxyphenyl)methylidene]azanium

> <PUBCHEM_IUPAC_TRADITIONAL_NAME>
(4-benzoxybenzylidene)-methyl-ammonium

> <PUBCHEM_IUPAC_INCHI>
InChI=1S/C15H15NO/c1-16-11-13-7-9-15(10-8-13)17-12-14-5-3-2-4-6-14/h2-11H,12H2,1H3/p+1

> <PUBCHEM_IUPAC_INCHIKEY>
BKZCYAYYFKKQKA-UHFFFAOYSA-O

> <PUBCHEM_XLOGP3>
3.4

> <PUBCHEM_EXACT_MASS>
226.123189

> <PUBCHEM_MOLECULAR_FORMULA>
C15H16NO+

> <PUBCHEM_MOLECULAR_WEIGHT>
226.29364

> <PUBCHEM_OPENEYE_CAN_SMILES>
C[NH+]=CC1=CC=C(C=C1)OCC2=CC=CC=C2

> <PUBCHEM_OPENEYE_ISO_SMILES>
C[NH+]=CC1=CC=C(C=C1)OCC2=CC=CC=C2

> <PUBCHEM_CACTVS_TPSA>
23.2

> <PUBCHEM_MONOISOTOPIC_WEIGHT>
226.123189

> <PUBCHEM_TOTAL_CHARGE>
1

> <PUBCHEM_HEAVY_ATOM_COUNT>
17

> <PUBCHEM_ATOM_DEF_STEREO_COUNT>
0

> <PUBCHEM_ATOM_UDEF_STEREO_COUNT>
0

> <PUBCHEM_BOND_DEF_STEREO_COUNT>
0

> <PUBCHEM_BOND_UDEF_STEREO_COUNT>
0

> <PUBCHEM_ISOTOPIC_ATOM_COUNT>
0

> <PUBCHEM_COMPONENT_COUNT>
1

> <PUBCHEM_CACTVS_TAUTO_COUNT>
1

> <PUBCHEM_COORDINATE_TYPE>
1
5
255

> <PUBCHEM_BONDANNOTATIONS>
11  13  8
12  14  8
13  16  8
14  16  8
4  11  8
4  12  8
5  7  8
5  8  8
6  10  8
6  9  8
7  9  8
8  10  8

$$$$
52113387
  -OEChem-11301218022D

 35 35  0     0  0  0  0  0  0999 V2000
    4.8622    0.2561    0.0000 N   0  3  0  0  0  0  0  0  0  0  0  0
    2.9972   -1.6205    0.0000 N   0  0  0  0  0  0  0  0  0  0  0  0
    3.9612    0.6900    0.0000 C   0  0  0  0  0  0  0  0  0  0  0  0
    5.7631    0.6900    0.0000 C   0  0  0  0  0  0  0  0  0  0  0  0
    4.4283   -0.6448    0.0000 C   0  0  0  0  0  0  0  0  0  0  0  0
    5.9857    1.6649    0.0000 C   0  0  0  0  0  0  0  0  0  0  0  0
    3.7387    1.6649    0.0000 C   0  0  0  0  0  0  0  0  0  0  0  0
    5.3622    2.4468    0.0000 C   0  0  0  0  0  0  0  0  0  0  0  0
    4.3622    2.4468    0.0000 C   0  0  0  0  0  0  0  0  0  0  0  0
    3.4311   -0.7196    0.0000 C   0  0  0  0  0  0  0  0  0  0  0  0
    2.0000   -1.6953    0.0000 C   0  0  0  0  0  0  0  0  0  0  0  0
    3.5605   -2.4468    0.0000 C   0  0  0  0  0  0  0  0  0  0  0  0
    5.1312   -0.3025    0.0000 H   0  0  0  0  0  0  0  0  0  0  0  0
    3.3412    0.6900    0.0000 H   0  0  0  0  0  0  0  0  0  0  0  0
    3.8232    0.0856    0.0000 H   0  0  0  0  0  0  0  0  0  0  0  0
    5.9011    0.0856    0.0000 H   0  0  0  0  0  0  0  0  0  0  0  0
    6.3831    0.6900    0.0000 H   0  0  0  0  0  0  0  0  0  0  0  0
    4.3666   -1.2618    0.0000 H   0  0  0  0  0  0  0  0  0  0  0  0
    5.0251   -0.8128    0.0000 H   0  0  0  0  0  0  0  0  0  0  0  0
    3.3521    2.1497    0.0000 H   0  0  0  0  0  0  0  0  0  0  0  0
    3.1801    1.3959    0.0000 H   0  0  0  0  0  0  0  0  0  0  0  0
    6.5443    1.3959    0.0000 H   0  0  0  0  0  0  0  0  0  0  0  0
    6.3722    2.1497    0.0000 H   0  0  0  0  0  0  0  0  0  0  0  0
    5.9208    2.7158    0.0000 H   0  0  0  0  0  0  0  0  0  0  0  0
    5.2242    3.0512    0.0000 H   0  0  0  0  0  0  0  0  0  0  0  0
    4.5001    3.0512    0.0000 H   0  0  0  0  0  0  0  0  0  0  0  0
    3.8036    2.7158    0.0000 H   0  0  0  0  0  0  0  0  0  0  0  0
    3.4928   -0.1026    0.0000 H   0  0  0  0  0  0  0  0  0  0  0  0
    2.8343   -0.5516    0.0000 H   0  0  0  0  0  0  0  0  0  0  0  0
    1.9537   -1.0770    0.0000 H   0  0  0  0  0  0  0  0  0  0  0  0
    1.3817   -1.7416    0.0000 H   0  0  0  0  0  0  0  0  0  0  0  0
    2.0463   -2.3135    0.0000 H   0  0  0  0  0  0  0  0  0  0  0  0
    3.0483   -2.7960    0.0000 H   0  0  0  0  0  0  0  0  0  0  0  0
    3.9098   -2.9590    0.0000 H   0  0  0  0  0  0  0  0  0  0  0  0
    4.0728   -2.0975    0.0000 H   0  0  0  0  0  0  0  0  0  0  0  0
  1  3  1  0  0  0  0
  1  4  1  0  0  0  0
  1  5  1  0  0  0  0
  1 13  1  0  0  0  0
  2 10  1  0  0  0  0
  2 11  1  0  0  0  0
  2 12  1  0  0  0  0
  3  7  1  0  0  0  0
  3 14  1  0  0  0  0
  3 15  1  0  0  0  0
  4  6  1  0  0  0  0
  4 16  1  0  0  0  0
  4 17  1  0  0  0  0
  5 10  1  0  0  0  0
  5 18  1  0  0  0  0
  5 19  1  0  0  0  0
  6  8  1  0  0  0  0
  6 22  1  0  0  0  0
  6 23  1  0  0  0  0
  7  9  1  0  0  0  0
  7 20  1  0  0  0  0
  7 21  1  0  0  0  0
  8  9  1  0  0  0  0
  8 24  1  0  0  0  0
  8 25  1  0  0  0  0
  9 26  1  0  0  0  0
  9 27  1  0  0  0  0
 10 28  1  0  0  0  0
 10 29  1  0  0  0  0
 11 30  1  0  0  0  0
 11 31  1  0  0  0  0
 11 32  1  0  0  0  0
 12 33  1  0  0  0  0
 12 34  1  0  0  0  0
 12 35  1  0  0  0  0
M  CHG  1   1   1
M  END
> <PUBCHEM_COMPOUND_CID>
52113387

> <PUBCHEM_COMPOUND_CANONICALIZED>
1

> <PUBCHEM_CACTVS_COMPLEXITY>
104

> <PUBCHEM_CACTVS_HBOND_ACCEPTOR>
1

> <PUBCHEM_CACTVS_HBOND_DONOR>
1

> <PUBCHEM_CACTVS_ROTATABLE_BOND>
3

> <PUBCHEM_CACTVS_SUBSKEYS>
AAADceBzAAAAAAAAAAAAAAAAAAAAAAAAAAAAAAAABYAAAAAAAAAAHAAQAAAACADBAAQCAAPAAAAAAAAAAAAAAAAAAAAAAIAIAAAAQAIAgAAUAAAAEACAAAEQAAAAAAAAAAAAAAAAAAAAAAAAAAAAAAAAAA==

> <PUBCHEM_IUPAC_OPENEYE_NAME>
2-(azepan-1-ium-1-yl)-N,N-dimethyl-ethanamine

> <PUBCHEM_IUPAC_CAS_NAME>
2-(1-azepan-1-iumyl)-N,N-dimethylethanamine

> <PUBCHEM_IUPAC_NAME>
2-(azepan-1-ium-1-yl)-N,N-dimethylethanamine

> <PUBCHEM_IUPAC_SYSTEMATIC_NAME>
2-(azepan-1-ium-1-yl)-N,N-dimethyl-ethanamine

> <PUBCHEM_IUPAC_TRADITIONAL_NAME>
2-(azepan-1-ium-1-yl)ethyl-dimethyl-amine

> <PUBCHEM_IUPAC_INCHI>
InChI=1S/C10H22N2/c1-11(2)9-10-12-7-5-3-4-6-8-12/h3-10H2,1-2H3/p+1

> <PUBCHEM_IUPAC_INCHIKEY>
ODHMPJGKXRIFTB-UHFFFAOYSA-O

> <PUBCHEM_XLOGP3>
2

> <PUBCHEM_EXACT_MASS>
171.186124

> <PUBCHEM_MOLECULAR_FORMULA>
C10H23N2+

> <PUBCHEM_MOLECULAR_WEIGHT>
171.30302

> <PUBCHEM_OPENEYE_CAN_SMILES>
CN(C)CC[NH+]1CCCCCC1

> <PUBCHEM_OPENEYE_ISO_SMILES>
CN(C)CC[NH+]1CCCCCC1

> <PUBCHEM_CACTVS_TPSA>
7.7

> <PUBCHEM_MONOISOTOPIC_WEIGHT>
171.186124

> <PUBCHEM_TOTAL_CHARGE>
1

> <PUBCHEM_HEAVY_ATOM_COUNT>
12

> <PUBCHEM_ATOM_DEF_STEREO_COUNT>
0

> <PUBCHEM_ATOM_UDEF_STEREO_COUNT>
0

> <PUBCHEM_BOND_DEF_STEREO_COUNT>
0

> <PUBCHEM_BOND_UDEF_STEREO_COUNT>
0

> <PUBCHEM_ISOTOPIC_ATOM_COUNT>
0

> <PUBCHEM_COMPONENT_COUNT>
1

> <PUBCHEM_CACTVS_TAUTO_COUNT>
1

> <PUBCHEM_COORDINATE_TYPE>
1
5
255

$$$$
52114005
  -OEChem-11301218022D

 38 38  0     0  0  0  0  0  0999 V2000
    5.5000    0.7321    0.0000 N   0  3  0  0  0  0  0  0  0  0  0  0
    3.5000   -1.0000    0.0000 N   0  0  0  0  0  0  0  0  0  0  0  0
    4.6340    1.2320    0.0000 C   0  0  0  0  0  0  0  0  0  0  0  0
    6.3660    1.2320    0.0000 C   0  0  0  0  0  0  0  0  0  0  0  0
    5.0000   -0.1340    0.0000 C   0  0  0  0  0  0  0  0  0  0  0  0
    4.6340    2.2320    0.0000 C   0  0  0  0  0  0  0  0  0  0  0  0
    6.3660    2.2320    0.0000 C   0  0  0  0  0  0  0  0  0  0  0  0
    5.5000    2.7320    0.0000 C   0  0  0  0  0  0  0  0  0  0  0  0
    4.0000   -0.1340    0.0000 C   0  0  0  0  0  0  0  0  0  0  0  0
    2.5000   -1.0000    0.0000 C   0  0  0  0  0  0  0  0  0  0  0  0
    4.0000   -1.8660    0.0000 C   0  0  0  0  0  0  0  0  0  0  0  0
    2.0000   -1.8660    0.0000 C   0  0  0  0  0  0  0  0  0  0  0  0
    3.5000   -2.7320    0.0000 C   0  0  0  0  0  0  0  0  0  0  0  0
    5.8100    0.1951    0.0000 H   0  0  0  0  0  0  0  0  0  0  0  0
    6.5781    0.6494    0.0000 H   0  0  0  0  0  0  0  0  0  0  0  0
    6.9766    1.3397    0.0000 H   0  0  0  0  0  0  0  0  0  0  0  0
    4.0234    1.3397    0.0000 H   0  0  0  0  0  0  0  0  0  0  0  0
    4.4219    0.6494    0.0000 H   0  0  0  0  0  0  0  0  0  0  0  0
    4.8923   -0.7446    0.0000 H   0  0  0  0  0  0  0  0  0  0  0  0
    5.5826   -0.3460    0.0000 H   0  0  0  0  0  0  0  0  0  0  0  0
    6.9766    2.1244    0.0000 H   0  0  0  0  0  0  0  0  0  0  0  0
    6.5781    2.8147    0.0000 H   0  0  0  0  0  0  0  0  0  0  0  0
    4.4219    2.8147    0.0000 H   0  0  0  0  0  0  0  0  0  0  0  0
    4.0234    2.1244    0.0000 H   0  0  0  0  0  0  0  0  0  0  0  0
    5.8985    3.2070    0.0000 H   0  0  0  0  0  0  0  0  0  0  0  0
    5.1015    3.2070    0.0000 H   0  0  0  0  0  0  0  0  0  0  0  0
    4.1077    0.4766    0.0000 H   0  0  0  0  0  0  0  0  0  0  0  0
    3.4174    0.0781    0.0000 H   0  0  0  0  0  0  0  0  0  0  0  0
    4.4750   -2.2646    0.0000 H   0  0  0  0  0  0  0  0  0  0  0  0
    4.4750   -1.4675    0.0000 H   0  0  0  0  0  0  0  0  0  0  0  0
    2.6077   -0.3894    0.0000 H   0  0  0  0  0  0  0  0  0  0  0  0
    1.9174   -0.7879    0.0000 H   0  0  0  0  0  0  0  0  0  0  0  0
    2.9631   -2.4220    0.0000 H   0  0  0  0  0  0  0  0  0  0  0  0
    3.1900   -3.2690    0.0000 H   0  0  0  0  0  0  0  0  0  0  0  0
    4.0369   -3.0420    0.0000 H   0  0  0  0  0  0  0  0  0  0  0  0
    1.4631   -1.5560    0.0000 H   0  0  0  0  0  0  0  0  0  0  0  0
    1.6900   -2.4030    0.0000 H   0  0  0  0  0  0  0  0  0  0  0  0
    2.5369   -2.1760    0.0000 H   0  0  0  0  0  0  0  0  0  0  0  0
  1  3  1  0  0  0  0
  1  4  1  0  0  0  0
  1  5  1  0  0  0  0
  1 14  1  0  0  0  0
  2  9  1  0  0  0  0
  2 10  1  0  0  0  0
  2 11  1  0  0  0  0
  3  6  1  0  0  0  0
  3 17  1  0  0  0  0
  3 18  1  0  0  0  0
  4  7  1  0  0  0  0
  4 15  1  0  0  0  0
  4 16  1  0  0  0  0
  5  9  1  0  0  0  0
  5 19  1  0  0  0  0
  5 20  1  0  0  0  0
  6  8  1  0  0  0  0
  6 23  1  0  0  0  0
  6 24  1  0  0  0  0
  7  8  1  0  0  0  0
  7 21  1  0  0  0  0
  7 22  1  0  0  0  0
  8 25  1  0  0  0  0
  8 26  1  0  0  0  0
  9 27  1  0  0  0  0
  9 28  1  0  0  0  0
 10 12  1  0  0  0  0
 10 31  1  0  0  0  0
 10 32  1  0  0  0  0
 11 13  1  0  0  0  0
 11 29  1  0  0  0  0
 11 30  1  0  0  0  0
 12 36  1  0  0  0  0
 12 37  1  0  0  0  0
 12 38  1  0  0  0  0
 13 33  1  0  0  0  0
 13 34  1  0  0  0  0
 13 35  1  0  0  0  0
M  CHG  1   1   1
M  END
> <PUBCHEM_COMPOUND_CID>
52114005

> <PUBCHEM_COMPOUND_CANONICALIZED>
1

> <PUBCHEM_CACTVS_COMPLEXITY>
115

> <PUBCHEM_CACTVS_HBOND_ACCEPTOR>
1

> <PUBCHEM_CACTVS_HBOND_DONOR>
1

> <PUBCHEM_CACTVS_ROTATABLE_BOND>
5

> <PUBCHEM_CACTVS_SUBSKEYS>
AAADceBzAAAAAAAAAAAAAAAAAAAAAAAAAAAsAAAAAAAAAAAAAAAAHAAQAAAACADBAAQCAAPAAAAAAAAAAAAAAAAAAAAAAIAIAAAAQAIAgAAUAAAAEACAAAAQAAAAAAAAAAAAAAAAAAAAAAAAAAAAAAAAAA==

> <PUBCHEM_IUPAC_OPENEYE_NAME>
N,N-diethyl-2-piperidin-1-ium-1-yl-ethanamine

> <PUBCHEM_IUPAC_CAS_NAME>
N,N-diethyl-2-(1-piperidin-1-iumyl)ethanamine

> <PUBCHEM_IUPAC_NAME>
N,N-diethyl-2-piperidin-1-ium-1-ylethanamine

> <PUBCHEM_IUPAC_SYSTEMATIC_NAME>
N,N-diethyl-2-piperidin-1-ium-1-yl-ethanamine

> <PUBCHEM_IUPAC_TRADITIONAL_NAME>
diethyl(2-piperidin-1-ium-1-ylethyl)amine

> <PUBCHEM_IUPAC_INCHI>
InChI=1S/C11H24N2/c1-3-12(4-2)10-11-13-8-6-5-7-9-13/h3-11H2,1-2H3/p+1

> <PUBCHEM_IUPAC_INCHIKEY>
NCXUBWUMCXIMHK-UHFFFAOYSA-O

> <PUBCHEM_XLOGP3>
2.4

> <PUBCHEM_EXACT_MASS>
185.201774

> <PUBCHEM_MOLECULAR_FORMULA>
C11H25N2+

> <PUBCHEM_MOLECULAR_WEIGHT>
185.3296

> <PUBCHEM_OPENEYE_CAN_SMILES>
CCN(CC)CC[NH+]1CCCCC1

> <PUBCHEM_OPENEYE_ISO_SMILES>
CCN(CC)CC[NH+]1CCCCC1

> <PUBCHEM_CACTVS_TPSA>
7.7

> <PUBCHEM_MONOISOTOPIC_WEIGHT>
185.201774

> <PUBCHEM_TOTAL_CHARGE>
1

> <PUBCHEM_HEAVY_ATOM_COUNT>
13

> <PUBCHEM_ATOM_DEF_STEREO_COUNT>
0

> <PUBCHEM_ATOM_UDEF_STEREO_COUNT>
0

> <PUBCHEM_BOND_DEF_STEREO_COUNT>
0

> <PUBCHEM_BOND_UDEF_STEREO_COUNT>
0

> <PUBCHEM_ISOTOPIC_ATOM_COUNT>
0

> <PUBCHEM_COMPONENT_COUNT>
1

> <PUBCHEM_CACTVS_TAUTO_COUNT>
1

> <PUBCHEM_COORDINATE_TYPE>
1
5
255

$$$$
