46736834
  -OEChem-05231305262D

 11 11  0     0  0  0  0  0  0999 V2000
    5.4641   -1.0000    0.0000 Br  0  0  0  0  0  0  0  0  0  0  0  0
    2.0000    1.0000    0.0000 Cl  0  0  0  0  0  0  0  0  0  0  0  0
    2.0000   -1.0000    0.0000 Cl  0  0  0  0  0  0  0  0  0  0  0  0
    3.7320   -1.0000    0.0000 N   0  0  0  0  0  0  0  0  0  0  0  0
    3.7320    1.0000    0.0000 C   0  0  0  0  0  0  0  0  0  0  0  0
    2.8660    0.5000    0.0000 C   0  0  0  0  0  0  0  0  0  0  0  0
    4.5981    0.5000    0.0000 C   0  0  0  0  0  0  0  0  0  0  0  0
    2.8660   -0.5000    0.0000 C   0  0  0  0  0  0  0  0  0  0  0  0
    4.5981   -0.5000    0.0000 C   0  0  0  0  0  0  0  0  0  0  0  0
    3.7320    1.6200    0.0000 H   0  0  0  0  0  0  0  0  0  0  0  0
    5.1350    0.8100    0.0000 H   0  0  0  0  0  0  0  0  0  0  0  0
  1  9  1  0  0  0  0
  2  6  1  0  0  0  0
  3  8  1  0  0  0  0
  4  8  1  0  0  0  0
  4  9  2  0  0  0  0
  5  6  1  0  0  0  0
  5  7  2  0  0  0  0
  5 10  1  0  0  0  0
  6  8  2  0  0  0  0
  7  9  1  0  0  0  0
  7 11  1  0  0  0  0
M  END
> <PUBCHEM_COMPOUND_CID>
46736834

> <PUBCHEM_COMPOUND_CANONICALIZED>
1

> <PUBCHEM_CACTVS_COMPLEXITY>
101

> <PUBCHEM_CACTVS_HBOND_ACCEPTOR>
1

> <PUBCHEM_CACTVS_HBOND_DONOR>
0

> <PUBCHEM_CACTVS_ROTATABLE_BOND>
0

> <PUBCHEM_CACTVS_SUBSKEYS>
AAADcQBiAAAGEAAAAAAAAAAAAAAAAAAAAAAsAAAAAAAAAAABgAAAHAJAAAABOAKBEiAwgJIIEACgACBiRACCgCAhByQImmAwZrgIIOLBkpHEIAhggADIyhYQAAAAAAAAAAAAAAAAAAAAAAAAAAAAAAAAAA==

> <PUBCHEM_IUPAC_OPENEYE_NAME>
6-bromo-2,3-dichloro-pyridine

> <PUBCHEM_IUPAC_CAS_NAME>
6-bromo-2,3-dichloropyridine

> <PUBCHEM_IUPAC_NAME>
6-bromo-2,3-dichloropyridine

> <PUBCHEM_IUPAC_SYSTEMATIC_NAME>
6-bromanyl-2,3-bis(chloranyl)pyridine

> <PUBCHEM_IUPAC_TRADITIONAL_NAME>
6-bromo-2,3-dichloro-pyridine

> <PUBCHEM_IUPAC_INCHI>
InChI=1S/C5H2BrCl2N/c6-4-2-1-3(7)5(8)9-4/h1-2H

> <PUBCHEM_IUPAC_INCHIKEY>
BBYIDUQXOFZISY-UHFFFAOYSA-N

> <PUBCHEM_XLOGP3>
2.8

> <PUBCHEM_EXACT_MASS>
224.874767

> <PUBCHEM_MOLECULAR_FORMULA>
C5H2BrCl2N

> <PUBCHEM_MOLECULAR_WEIGHT>
226.88608

> <PUBCHEM_OPENEYE_CAN_SMILES>
C1=CC(=NC(=C1Cl)Cl)Br

> <PUBCHEM_OPENEYE_ISO_SMILES>
C1=CC(=NC(=C1Cl)Cl)Br

> <PUBCHEM_CACTVS_TPSA>
12.9

> <PUBCHEM_MONOISOTOPIC_WEIGHT>
224.874767

> <PUBCHEM_TOTAL_CHARGE>
0

> <PUBCHEM_HEAVY_ATOM_COUNT>
9

> <PUBCHEM_ATOM_DEF_STEREO_COUNT>
0

> <PUBCHEM_ATOM_UDEF_STEREO_COUNT>
0

> <PUBCHEM_BOND_DEF_STEREO_COUNT>
0

> <PUBCHEM_BOND_UDEF_STEREO_COUNT>
0

> <PUBCHEM_ISOTOPIC_ATOM_COUNT>
0

> <PUBCHEM_COMPONENT_COUNT>
1

> <PUBCHEM_CACTVS_TAUTO_COUNT>
1

> <PUBCHEM_COORDINATE_TYPE>
1
5
255

> <PUBCHEM_BONDANNOTATIONS>
4  8  8
4  9  8
5  6  8
5  7  8
6  8  8
7  9  8

$$$$
46738180
  -OEChem-05231305262D

 30 31  0     1  0  0  0  0  0999 V2000
    2.5989   -2.2353    0.0000 N   0  0  0  0  0  0  0  0  0  0  0  0
    4.5897   -0.2694    0.0000 C   0  0  2  0  0  0  0  0  0  0  0  0
    4.1120    1.6792    0.0000 C   0  0  0  0  0  0  0  0  0  0  0  0
    4.8486    0.6966    0.0000 C   0  0  3  0  0  0  0  0  0  0  0  0
    2.8577   -1.2694    0.0000 C   0  0  2  0  0  0  0  0  0  0  0  0
    6.4217   -1.0282    0.0000 C   0  0  0  0  0  0  0  0  0  0  0  0
    2.3577   -0.4033    0.0000 C   0  0  0  0  0  0  0  0  0  0  0  0
    6.6805   -0.0623    0.0000 C   0  0  0  0  0  0  0  0  0  0  0  0
    4.3309   -1.2353    0.0000 C   0  0  0  0  0  0  0  0  0  0  0  0
    4.2165    2.6737    0.0000 C   0  0  0  0  0  0  0  0  0  0  0  0
    3.1984    2.0859    0.0000 C   0  0  0  0  0  0  0  0  0  0  0  0
    4.8584   -0.1534    0.0000 H   0  0  0  0  0  0  0  0  0  0  0  0
    2.2430   -1.3503    0.0000 H   0  0  0  0  0  0  0  0  0  0  0  0
    6.2096   -1.6108    0.0000 H   0  0  0  0  0  0  0  0  0  0  0  0
    7.0130   -1.2146    0.0000 H   0  0  0  0  0  0  0  0  0  0  0  0
    2.0870    0.1545    0.0000 H   0  0  0  0  0  0  0  0  0  0  0  0
    1.8100   -0.6939    0.0000 H   0  0  0  0  0  0  0  0  0  0  0  0
    7.2718   -0.2487    0.0000 H   0  0  0  0  0  0  0  0  0  0  0  0
    6.8926    0.5204    0.0000 H   0  0  0  0  0  0  0  0  0  0  0  0
    3.7320   -1.0748    0.0000 H   0  0  0  0  0  0  0  0  0  0  0  0
    4.1705   -1.8342    0.0000 H   0  0  0  0  0  0  0  0  0  0  0  0
    4.9298   -1.3958    0.0000 H   0  0  0  0  0  0  0  0  0  0  0  0
    3.4506    2.6523    0.0000 H   0  0  0  0  0  0  0  0  0  0  0  0
    2.6320    2.3381    0.0000 H   0  0  0  0  0  0  0  0  0  0  0  0
    2.9462    1.5195    0.0000 H   0  0  0  0  0  0  0  0  0  0  0  0
    4.8331    2.6089    0.0000 H   0  0  0  0  0  0  0  0  0  0  0  0
    4.2813    3.2903    0.0000 H   0  0  0  0  0  0  0  0  0  0  0  0
    3.5999    2.7385    0.0000 H   0  0  0  0  0  0  0  0  0  0  0  0
    2.0000   -2.3958    0.0000 H   0  0  0  0  0  0  0  0  0  0  0  0
    3.0373   -2.6737    0.0000 H   0  0  0  0  0  0  0  0  0  0  0  0
  5  1  1  1  0  0  0
  1 29  1  0  0  0  0
  1 30  1  0  0  0  0
  2  3  1  0  0  0  0
  2  5  1  0  0  0  0
  2  6  1  0  0  0  0
  2  9  1  6  0  0  0
  3  4  1  0  0  0  0
  3 10  1  0  0  0  0
  3 11  1  0  0  0  0
  4  7  1  0  0  0  0
  4  8  1  0  0  0  0
  4 12  1  0  0  0  0
  5  7  1  0  0  0  0
  5 13  1  0  0  0  0
  6  8  1  0  0  0  0
  6 14  1  0  0  0  0
  6 15  1  0  0  0  0
  7 16  1  0  0  0  0
  7 17  1  0  0  0  0
  8 18  1  0  0  0  0
  8 19  1  0  0  0  0
  9 20  1  0  0  0  0
  9 21  1  0  0  0  0
  9 22  1  0  0  0  0
 10 26  1  0  0  0  0
 10 27  1  0  0  0  0
 10 28  1  0  0  0  0
 11 23  1  0  0  0  0
 11 24  1  0  0  0  0
 11 25  1  0  0  0  0
M  END
> <PUBCHEM_COMPOUND_CID>
46738180

> <PUBCHEM_COMPOUND_CANONICALIZED>
1

> <PUBCHEM_CACTVS_COMPLEXITY>
185

> <PUBCHEM_CACTVS_HBOND_ACCEPTOR>
1

> <PUBCHEM_CACTVS_HBOND_DONOR>
1

> <PUBCHEM_CACTVS_ROTATABLE_BOND>
0

> <PUBCHEM_CACTVS_SUBSKEYS>
AAADceByAAAAAAAAAAAAAAAAAAAAAYMAAAAwAAAAAAAAAAAAAAAAHAAQAAAADyjBAAQCAABAAAAAAAAAAAAAAAAAAAAAAIAAAAAAAAIAgAAAAAAAEAAAAAEQgMAPgAAAAAAAAACAAACAAAQAASAACQAAAA==

> <PUBCHEM_IUPAC_OPENEYE_NAME>
(1R,2S)-1,7,7-trimethylnorbornan-2-amine

> <PUBCHEM_IUPAC_CAS_NAME>
(3S,4R)-4,7,7-trimethyl-3-bicyclo[2.2.1]heptanamine

> <PUBCHEM_IUPAC_NAME>
(3S,4R)-4,7,7-trimethylbicyclo[2.2.1]heptan-3-amine

> <PUBCHEM_IUPAC_SYSTEMATIC_NAME>
(3S,4R)-4,7,7-trimethylbicyclo[2.2.1]heptan-3-amine

> <PUBCHEM_IUPAC_TRADITIONAL_NAME>
[(1R,2S)-1,7,7-trimethylnorbornan-2-yl]amine

> <PUBCHEM_IUPAC_INCHI>
InChI=1S/C10H19N/c1-9(2)7-4-5-10(9,3)8(11)6-7/h7-8H,4-6,11H2,1-3H3/t7?,8-,10-/m0/s1

> <PUBCHEM_IUPAC_INCHIKEY>
MDFWXZBEVCOVIO-CFGJQEBVSA-N

> <PUBCHEM_XLOGP3>
2.5

> <PUBCHEM_EXACT_MASS>
153.15175

> <PUBCHEM_MOLECULAR_FORMULA>
C10H19N

> <PUBCHEM_MOLECULAR_WEIGHT>
153.26456

> <PUBCHEM_OPENEYE_CAN_SMILES>
CC1(C2CCC1(C(C2)N)C)C

> <PUBCHEM_OPENEYE_ISO_SMILES>
C[C@@]12CCC(C1(C)C)C[C@@H]2N

> <PUBCHEM_CACTVS_TPSA>
26

> <PUBCHEM_MONOISOTOPIC_WEIGHT>
153.15175

> <PUBCHEM_TOTAL_CHARGE>
0

> <PUBCHEM_HEAVY_ATOM_COUNT>
11

> <PUBCHEM_ATOM_DEF_STEREO_COUNT>
2

> <PUBCHEM_ATOM_UDEF_STEREO_COUNT>
1

> <PUBCHEM_BOND_DEF_STEREO_COUNT>
0

> <PUBCHEM_BOND_UDEF_STEREO_COUNT>
0

> <PUBCHEM_ISOTOPIC_ATOM_COUNT>
0

> <PUBCHEM_COMPONENT_COUNT>
1

> <PUBCHEM_CACTVS_TAUTO_COUNT>
1

> <PUBCHEM_COORDINATE_TYPE>
1
5
255

> <PUBCHEM_BONDANNOTATIONS>
5  1  5
2  9  6
4  12  3

$$$$
46738614
  -OEChem-05231305262D

 29 30  0     0  0  0  0  0  0999 V2000
    8.2619   -0.0116    0.0000 O   0  0  0  0  0  0  0  0  0  0  0  0
    4.6783    0.7931    0.0000 N   0  0  0  0  0  0  0  0  0  0  0  0
    6.7619   -0.8776    0.0000 N   0  0  0  0  0  0  0  0  0  0  0  0
    5.2619   -0.0116    0.0000 C   0  0  0  0  0  0  0  0  0  0  0  0
    3.7320    0.4884    0.0000 C   0  0  0  0  0  0  0  0  0  0  0  0
    3.7320   -0.5116    0.0000 C   0  0  0  0  0  0  0  0  0  0  0  0
    4.6783   -0.8163    0.0000 C   0  0  0  0  0  0  0  0  0  0  0  0
    6.2619   -0.0116    0.0000 C   0  0  0  0  0  0  0  0  0  0  0  0
    4.9889    1.7436    0.0000 C   0  0  0  0  0  0  0  0  0  0  0  0
    2.8660    0.9884    0.0000 C   0  0  0  0  0  0  0  0  0  0  0  0
    2.8660   -1.0116    0.0000 C   0  0  0  0  0  0  0  0  0  0  0  0
    2.0000    0.4884    0.0000 C   0  0  0  0  0  0  0  0  0  0  0  0
    2.0000   -0.5116    0.0000 C   0  0  0  0  0  0  0  0  0  0  0  0
    7.7619   -0.8776    0.0000 C   0  0  0  0  0  0  0  0  0  0  0  0
    8.2619   -1.7436    0.0000 C   0  0  0  0  0  0  0  0  0  0  0  0
    4.8709   -1.4057    0.0000 H   0  0  0  0  0  0  0  0  0  0  0  0
    6.8445    0.2005    0.0000 H   0  0  0  0  0  0  0  0  0  0  0  0
    6.1542    0.5990    0.0000 H   0  0  0  0  0  0  0  0  0  0  0  0
    5.5783    1.5510    0.0000 H   0  0  0  0  0  0  0  0  0  0  0  0
    5.1815    2.3330    0.0000 H   0  0  0  0  0  0  0  0  0  0  0  0
    4.3996    1.9363    0.0000 H   0  0  0  0  0  0  0  0  0  0  0  0
    2.8660    1.6084    0.0000 H   0  0  0  0  0  0  0  0  0  0  0  0
    2.8660   -1.6316    0.0000 H   0  0  0  0  0  0  0  0  0  0  0  0
    6.4519   -1.4146    0.0000 H   0  0  0  0  0  0  0  0  0  0  0  0
    1.4631    0.7984    0.0000 H   0  0  0  0  0  0  0  0  0  0  0  0
    1.4631   -0.8216    0.0000 H   0  0  0  0  0  0  0  0  0  0  0  0
    7.7249   -2.0537    0.0000 H   0  0  0  0  0  0  0  0  0  0  0  0
    8.5719   -2.2806    0.0000 H   0  0  0  0  0  0  0  0  0  0  0  0
    8.7988   -1.4336    0.0000 H   0  0  0  0  0  0  0  0  0  0  0  0
  1 14  2  0  0  0  0
  2  4  1  0  0  0  0
  2  5  1  0  0  0  0
  2  9  1  0  0  0  0
  3  8  1  0  0  0  0
  3 14  1  0  0  0  0
  3 24  1  0  0  0  0
  4  7  2  0  0  0  0
  4  8  1  0  0  0  0
  5  6  1  0  0  0  0
  5 10  2  0  0  0  0
  6  7  1  0  0  0  0
  6 11  2  0  0  0  0
  7 16  1  0  0  0  0
  8 17  1  0  0  0  0
  8 18  1  0  0  0  0
  9 19  1  0  0  0  0
  9 20  1  0  0  0  0
  9 21  1  0  0  0  0
 10 12  1  0  0  0  0
 10 22  1  0  0  0  0
 11 13  1  0  0  0  0
 11 23  1  0  0  0  0
 12 13  2  0  0  0  0
 12 25  1  0  0  0  0
 13 26  1  0  0  0  0
 14 15  1  0  0  0  0
 15 27  1  0  0  0  0
 15 28  1  0  0  0  0
 15 29  1  0  0  0  0
M  END
> <PUBCHEM_COMPOUND_CID>
46738614

> <PUBCHEM_COMPOUND_CANONICALIZED>
1

> <PUBCHEM_CACTVS_COMPLEXITY>
242

> <PUBCHEM_CACTVS_HBOND_ACCEPTOR>
1

> <PUBCHEM_CACTVS_HBOND_DONOR>
1

> <PUBCHEM_CACTVS_ROTATABLE_BOND>
2

> <PUBCHEM_CACTVS_SUBSKEYS>
AAADccBzIAAAAAAAAAAAAAAAAAAAAWAAAAAwAAAAAAAAAFgB8AAAHgAQAAAADAjBngQywPPMEACoAyVyVACCgCAhAiAI2KA4ZJgIYOLAkZGUIAhglgDIyAcQgIAOAAAAAAACAAAAAAAAAAQAAAAAAAAAAA==

> <PUBCHEM_IUPAC_OPENEYE_NAME>
N-[(1-methylindol-2-yl)methyl]acetamide

> <PUBCHEM_IUPAC_CAS_NAME>
N-[(1-methyl-2-indolyl)methyl]acetamide

> <PUBCHEM_IUPAC_NAME>
N-[(1-methylindol-2-yl)methyl]acetamide

> <PUBCHEM_IUPAC_SYSTEMATIC_NAME>
N-[(1-methylindol-2-yl)methyl]ethanamide

> <PUBCHEM_IUPAC_TRADITIONAL_NAME>
N-[(1-methylindol-2-yl)methyl]acetamide

> <PUBCHEM_IUPAC_INCHI>
InChI=1S/C12H14N2O/c1-9(15)13-8-11-7-10-5-3-4-6-12(10)14(11)2/h3-7H,8H2,1-2H3,(H,13,15)

> <PUBCHEM_IUPAC_INCHIKEY>
LXAWPGMUOKSIPT-UHFFFAOYSA-N

> <PUBCHEM_XLOGP3>
1.6

> <PUBCHEM_EXACT_MASS>
202.110613

> <PUBCHEM_MOLECULAR_FORMULA>
C12H14N2O

> <PUBCHEM_MOLECULAR_WEIGHT>
202.25236

> <PUBCHEM_OPENEYE_CAN_SMILES>
CC(=O)NCC1=CC2=CC=CC=C2N1C

> <PUBCHEM_OPENEYE_ISO_SMILES>
CC(=O)NCC1=CC2=CC=CC=C2N1C

> <PUBCHEM_CACTVS_TPSA>
34

> <PUBCHEM_MONOISOTOPIC_WEIGHT>
202.110613

> <PUBCHEM_TOTAL_CHARGE>
0

> <PUBCHEM_HEAVY_ATOM_COUNT>
15

> <PUBCHEM_ATOM_DEF_STEREO_COUNT>
0

> <PUBCHEM_ATOM_UDEF_STEREO_COUNT>
0

> <PUBCHEM_BOND_DEF_STEREO_COUNT>
0

> <PUBCHEM_BOND_UDEF_STEREO_COUNT>
0

> <PUBCHEM_ISOTOPIC_ATOM_COUNT>
0

> <PUBCHEM_COMPONENT_COUNT>
1

> <PUBCHEM_CACTVS_TAUTO_COUNT>
2

> <PUBCHEM_COORDINATE_TYPE>
1
5
255

> <PUBCHEM_BONDANNOTATIONS>
10  12  8
11  13  8
12  13  8
2  4  8
2  5  8
4  7  8
5  10  8
5  6  8
6  11  8
6  7  8

$$$$
46738732
  -OEChem-05231305262D

 29 30  0     0  0  0  0  0  0999 V2000
    3.7320   -3.7500    0.0000 Br  0  0  0  0  0  0  0  0  0  0  0  0
    2.8660    0.7500    0.0000 O   0  0  0  0  0  0  0  0  0  0  0  0
    4.5981    0.7500    0.0000 N   0  0  0  0  0  0  0  0  0  0  0  0
    3.7320   -0.7500    0.0000 C   0  0  0  0  0  0  0  0  0  0  0  0
    2.8660   -2.2500    0.0000 C   0  0  0  0  0  0  0  0  0  0  0  0
    2.8660   -1.2500    0.0000 C   0  0  0  0  0  0  0  0  0  0  0  0
    3.7320    0.2500    0.0000 C   0  0  0  0  0  0  0  0  0  0  0  0
    4.5981   -1.2500    0.0000 C   0  0  0  0  0  0  0  0  0  0  0  0
    4.5981    1.7500    0.0000 C   0  0  0  0  0  0  0  0  0  0  0  0
    3.7320   -2.7500    0.0000 C   0  0  0  0  0  0  0  0  0  0  0  0
    4.5981   -2.2500    0.0000 C   0  0  0  0  0  0  0  0  0  0  0  0
    2.0000   -2.7500    0.0000 C   0  0  0  0  0  0  0  0  0  0  0  0
    5.4641    2.2500    0.0000 C   0  0  0  0  0  0  0  0  0  0  0  0
    3.7320    2.2500    0.0000 C   0  0  0  0  0  0  0  0  0  0  0  0
    5.4641    3.2500    0.0000 C   0  0  0  0  0  0  0  0  0  0  0  0
    3.7320    3.2500    0.0000 C   0  0  0  0  0  0  0  0  0  0  0  0
    4.5981    3.7500    0.0000 C   0  0  0  0  0  0  0  0  0  0  0  0
    2.3291   -0.9400    0.0000 H   0  0  0  0  0  0  0  0  0  0  0  0
    5.1350   -0.9400    0.0000 H   0  0  0  0  0  0  0  0  0  0  0  0
    5.1350    0.4400    0.0000 H   0  0  0  0  0  0  0  0  0  0  0  0
    5.1350   -2.5600    0.0000 H   0  0  0  0  0  0  0  0  0  0  0  0
    1.6900   -2.2131    0.0000 H   0  0  0  0  0  0  0  0  0  0  0  0
    1.4631   -3.0600    0.0000 H   0  0  0  0  0  0  0  0  0  0  0  0
    2.3100   -3.2869    0.0000 H   0  0  0  0  0  0  0  0  0  0  0  0
    6.0010    1.9400    0.0000 H   0  0  0  0  0  0  0  0  0  0  0  0
    3.1951    1.9400    0.0000 H   0  0  0  0  0  0  0  0  0  0  0  0
    6.0010    3.5600    0.0000 H   0  0  0  0  0  0  0  0  0  0  0  0
    3.1951    3.5600    0.0000 H   0  0  0  0  0  0  0  0  0  0  0  0
    4.5981    4.3700    0.0000 H   0  0  0  0  0  0  0  0  0  0  0  0
  1 10  1  0  0  0  0
  2  7  2  0  0  0  0
  3  7  1  0  0  0  0
  3  9  1  0  0  0  0
  3 20  1  0  0  0  0
  4  6  2  0  0  0  0
  4  7  1  0  0  0  0
  4  8  1  0  0  0  0
  5  6  1  0  0  0  0
  5 10  2  0  0  0  0
  5 12  1  0  0  0  0
  6 18  1  0  0  0  0
  8 11  2  0  0  0  0
  8 19  1  0  0  0  0
  9 13  2  0  0  0  0
  9 14  1  0  0  0  0
 10 11  1  0  0  0  0
 11 21  1  0  0  0  0
 12 22  1  0  0  0  0
 12 23  1  0  0  0  0
 12 24  1  0  0  0  0
 13 15  1  0  0  0  0
 13 25  1  0  0  0  0
 14 16  2  0  0  0  0
 14 26  1  0  0  0  0
 15 17  2  0  0  0  0
 15 27  1  0  0  0  0
 16 17  1  0  0  0  0
 16 28  1  0  0  0  0
 17 29  1  0  0  0  0
M  END
> <PUBCHEM_COMPOUND_CID>
46738732

> <PUBCHEM_COMPOUND_CANONICALIZED>
1

> <PUBCHEM_CACTVS_COMPLEXITY>
263

> <PUBCHEM_CACTVS_HBOND_ACCEPTOR>
1

> <PUBCHEM_CACTVS_HBOND_DONOR>
1

> <PUBCHEM_CACTVS_ROTATABLE_BOND>
2

> <PUBCHEM_CACTVS_SUBSKEYS>
AAADccByIAAAEAAAAAAAAAAAAAAAAAAAAAAwYAAAAAAAAAABQAAAHgBQAAABrAiBmAAywILAAACIAiVSUACCAAAlAgQIiAEAZOgIIDLAlZGEIQhglADIy5cYiECOAgACAAAAgAAEAAQAAAEAAAAAAAAAAA==

> <PUBCHEM_IUPAC_OPENEYE_NAME>
4-bromo-3-methyl-N-phenyl-benzamide

> <PUBCHEM_IUPAC_CAS_NAME>
4-bromo-3-methyl-N-phenylbenzamide

> <PUBCHEM_IUPAC_NAME>
4-bromo-3-methyl-N-phenylbenzamide

> <PUBCHEM_IUPAC_SYSTEMATIC_NAME>
4-bromanyl-3-methyl-N-phenyl-benzamide

> <PUBCHEM_IUPAC_TRADITIONAL_NAME>
4-bromo-3-methyl-N-phenyl-benzamide

> <PUBCHEM_IUPAC_INCHI>
InChI=1S/C14H12BrNO/c1-10-9-11(7-8-13(10)15)14(17)16-12-5-3-2-4-6-12/h2-9H,1H3,(H,16,17)

> <PUBCHEM_IUPAC_INCHIKEY>
DITUUIPFJXYABP-UHFFFAOYSA-N

> <PUBCHEM_XLOGP3>
4.5

> <PUBCHEM_EXACT_MASS>
289.010226

> <PUBCHEM_MOLECULAR_FORMULA>
C14H12BrNO

> <PUBCHEM_MOLECULAR_WEIGHT>
290.15518

> <PUBCHEM_OPENEYE_CAN_SMILES>
CC1=C(C=CC(=C1)C(=O)NC2=CC=CC=C2)Br

> <PUBCHEM_OPENEYE_ISO_SMILES>
CC1=C(C=CC(=C1)C(=O)NC2=CC=CC=C2)Br

> <PUBCHEM_CACTVS_TPSA>
29.1

> <PUBCHEM_MONOISOTOPIC_WEIGHT>
289.010226

> <PUBCHEM_TOTAL_CHARGE>
0

> <PUBCHEM_HEAVY_ATOM_COUNT>
17

> <PUBCHEM_ATOM_DEF_STEREO_COUNT>
0

> <PUBCHEM_ATOM_UDEF_STEREO_COUNT>
0

> <PUBCHEM_BOND_DEF_STEREO_COUNT>
0

> <PUBCHEM_BOND_UDEF_STEREO_COUNT>
0

> <PUBCHEM_ISOTOPIC_ATOM_COUNT>
0

> <PUBCHEM_COMPONENT_COUNT>
1

> <PUBCHEM_CACTVS_TAUTO_COUNT>
2

> <PUBCHEM_COORDINATE_TYPE>
1
5
255

> <PUBCHEM_BONDANNOTATIONS>
10  11  8
13  15  8
14  16  8
15  17  8
16  17  8
4  6  8
4  8  8
5  10  8
5  6  8
8  11  8
9  13  8
9  14  8

$$$$
46738941
  -OEChem-05231305262D

 29 30  0     0  0  0  0  0  0999 V2000
    2.0000   -1.2500    0.0000 Cl  0  0  0  0  0  0  0  0  0  0  0  0
    3.7320   -0.2500    0.0000 O   0  0  0  0  0  0  0  0  0  0  0  0
    4.5981    0.2500    0.0000 C   0  0  0  0  0  0  0  0  0  0  0  0
    4.5981    1.2500    0.0000 C   0  0  0  0  0  0  0  0  0  0  0  0
    3.7320   -1.2500    0.0000 C   0  0  0  0  0  0  0  0  0  0  0  0
    4.5981   -2.7500    0.0000 C   0  0  0  0  0  0  0  0  0  0  0  0
    4.5981   -1.7500    0.0000 C   0  0  0  0  0  0  0  0  0  0  0  0
    2.8660   -1.7500    0.0000 C   0  0  0  0  0  0  0  0  0  0  0  0
    3.7320   -3.2500    0.0000 C   0  0  0  0  0  0  0  0  0  0  0  0
    5.4641    1.7500    0.0000 C   0  0  0  0  0  0  0  0  0  0  0  0
    3.7320    1.7500    0.0000 C   0  0  0  0  0  0  0  0  0  0  0  0
    2.8660   -2.7500    0.0000 C   0  0  0  0  0  0  0  0  0  0  0  0
    5.4641   -3.2500    0.0000 C   0  0  0  0  0  0  0  0  0  0  0  0
    5.4641    2.7500    0.0000 C   0  0  0  0  0  0  0  0  0  0  0  0
    3.7320    2.7500    0.0000 C   0  0  0  0  0  0  0  0  0  0  0  0
    4.5981    3.2500    0.0000 C   0  0  0  0  0  0  0  0  0  0  0  0
    4.8101   -0.3326    0.0000 H   0  0  0  0  0  0  0  0  0  0  0  0
    5.2087    0.3577    0.0000 H   0  0  0  0  0  0  0  0  0  0  0  0
    5.1350   -1.4400    0.0000 H   0  0  0  0  0  0  0  0  0  0  0  0
    3.7320   -3.8700    0.0000 H   0  0  0  0  0  0  0  0  0  0  0  0
    6.0010    1.4400    0.0000 H   0  0  0  0  0  0  0  0  0  0  0  0
    3.1951    1.4400    0.0000 H   0  0  0  0  0  0  0  0  0  0  0  0
    2.3291   -3.0600    0.0000 H   0  0  0  0  0  0  0  0  0  0  0  0
    5.1541   -3.7869    0.0000 H   0  0  0  0  0  0  0  0  0  0  0  0
    6.0010   -3.5600    0.0000 H   0  0  0  0  0  0  0  0  0  0  0  0
    5.7741   -2.7131    0.0000 H   0  0  0  0  0  0  0  0  0  0  0  0
    6.0010    3.0600    0.0000 H   0  0  0  0  0  0  0  0  0  0  0  0
    3.1951    3.0600    0.0000 H   0  0  0  0  0  0  0  0  0  0  0  0
    4.5981    3.8700    0.0000 H   0  0  0  0  0  0  0  0  0  0  0  0
  1  8  1  0  0  0  0
  2  3  1  0  0  0  0
  2  5  1  0  0  0  0
  3  4  1  0  0  0  0
  3 17  1  0  0  0  0
  3 18  1  0  0  0  0
  4 10  2  0  0  0  0
  4 11  1  0  0  0  0
  5  7  1  0  0  0  0
  5  8  2  0  0  0  0
  6  7  2  0  0  0  0
  6  9  1  0  0  0  0
  6 13  1  0  0  0  0
  7 19  1  0  0  0  0
  8 12  1  0  0  0  0
  9 12  2  0  0  0  0
  9 20  1  0  0  0  0
 10 14  1  0  0  0  0
 10 21  1  0  0  0  0
 11 15  2  0  0  0  0
 11 22  1  0  0  0  0
 12 23  1  0  0  0  0
 13 24  1  0  0  0  0
 13 25  1  0  0  0  0
 13 26  1  0  0  0  0
 14 16  2  0  0  0  0
 14 27  1  0  0  0  0
 15 16  1  0  0  0  0
 15 28  1  0  0  0  0
 16 29  1  0  0  0  0
M  END
> <PUBCHEM_COMPOUND_CID>
46738941

> <PUBCHEM_COMPOUND_CANONICALIZED>
1

> <PUBCHEM_CACTVS_COMPLEXITY>
201

> <PUBCHEM_CACTVS_HBOND_ACCEPTOR>
1

> <PUBCHEM_CACTVS_HBOND_DONOR>
0

> <PUBCHEM_CACTVS_ROTATABLE_BOND>
3

> <PUBCHEM_CACTVS_SUBSKEYS>
AAADccBwIAAEAAAAAAAAAAAAAAAAAAAAAAAwYAAAAAAAAAABQAAAGgIAAAAADAagmCIyBoAABACAAiBCAAACCAAgJUAIiAAGC4gMJiOFMxqCOCCkwBEIqAeAwDAOBAABAAAACAAIAAIAAAAQAAAAAAAAAA==

> <PUBCHEM_IUPAC_OPENEYE_NAME>
2-benzyloxy-1-chloro-4-methyl-benzene

> <PUBCHEM_IUPAC_CAS_NAME>
1-chloro-4-methyl-2-phenylmethoxybenzene

> <PUBCHEM_IUPAC_NAME>
1-chloro-4-methyl-2-phenylmethoxybenzene

> <PUBCHEM_IUPAC_SYSTEMATIC_NAME>
1-chloranyl-4-methyl-2-phenylmethoxy-benzene

> <PUBCHEM_IUPAC_TRADITIONAL_NAME>
2-benzoxy-1-chloro-4-methyl-benzene

> <PUBCHEM_IUPAC_INCHI>
InChI=1S/C14H13ClO/c1-11-7-8-13(15)14(9-11)16-10-12-5-3-2-4-6-12/h2-9H,10H2,1H3

> <PUBCHEM_IUPAC_INCHIKEY>
XVOREKXLRMZNBK-UHFFFAOYSA-N

> <PUBCHEM_XLOGP3>
4.3

> <PUBCHEM_EXACT_MASS>
232.065493

> <PUBCHEM_MOLECULAR_FORMULA>
C14H13ClO

> <PUBCHEM_MOLECULAR_WEIGHT>
232.70542

> <PUBCHEM_OPENEYE_CAN_SMILES>
CC1=CC(=C(C=C1)Cl)OCC2=CC=CC=C2

> <PUBCHEM_OPENEYE_ISO_SMILES>
CC1=CC(=C(C=C1)Cl)OCC2=CC=CC=C2

> <PUBCHEM_CACTVS_TPSA>
9.2

> <PUBCHEM_MONOISOTOPIC_WEIGHT>
232.065493

> <PUBCHEM_TOTAL_CHARGE>
0

> <PUBCHEM_HEAVY_ATOM_COUNT>
16

> <PUBCHEM_ATOM_DEF_STEREO_COUNT>
0

> <PUBCHEM_ATOM_UDEF_STEREO_COUNT>
0

> <PUBCHEM_BOND_DEF_STEREO_COUNT>
0

> <PUBCHEM_BOND_UDEF_STEREO_COUNT>
0

> <PUBCHEM_ISOTOPIC_ATOM_COUNT>
0

> <PUBCHEM_COMPONENT_COUNT>
1

> <PUBCHEM_CACTVS_TAUTO_COUNT>
1

> <PUBCHEM_COORDINATE_TYPE>
1
5
255

> <PUBCHEM_BONDANNOTATIONS>
10  14  8
11  15  8
14  16  8
15  16  8
4  10  8
4  11  8
5  7  8
5  8  8
6  7  8
6  9  8
8  12  8
9  12  8

$$$$
46739374
  -OEChem-05231305262D

 19 19  0     0  0  0  0  0  0999 V2000
    3.7320   -2.7500    0.0000 Br  0  0  0  0  0  0  0  0  0  0  0  0
    2.0000    0.2500    0.0000 Cl  0  0  0  0  0  0  0  0  0  0  0  0
    5.4641    0.2500    0.0000 Cl  0  0  0  0  0  0  0  0  0  0  0  0
    3.7320    1.2500    0.0000 O   0  0  0  0  0  0  0  0  0  0  0  0
    3.7320    0.2500    0.0000 C   0  0  0  0  0  0  0  0  0  0  0  0
    4.5981    1.7500    0.0000 C   0  0  0  0  0  0  0  0  0  0  0  0
    2.8660   -0.2500    0.0000 C   0  0  0  0  0  0  0  0  0  0  0  0
    4.5981   -0.2500    0.0000 C   0  0  0  0  0  0  0  0  0  0  0  0
    2.8660   -1.2500    0.0000 C   0  0  0  0  0  0  0  0  0  0  0  0
    4.5981   -1.2500    0.0000 C   0  0  0  0  0  0  0  0  0  0  0  0
    3.7320   -1.7500    0.0000 C   0  0  0  0  0  0  0  0  0  0  0  0
    4.5981    2.7500    0.0000 C   0  0  0  0  0  0  0  0  0  0  0  0
    4.8101    1.1674    0.0000 H   0  0  0  0  0  0  0  0  0  0  0  0
    5.2087    1.8577    0.0000 H   0  0  0  0  0  0  0  0  0  0  0  0
    2.3291   -1.5600    0.0000 H   0  0  0  0  0  0  0  0  0  0  0  0
    5.1350   -1.5600    0.0000 H   0  0  0  0  0  0  0  0  0  0  0  0
    5.2181    2.7500    0.0000 H   0  0  0  0  0  0  0  0  0  0  0  0
    4.5981    3.3700    0.0000 H   0  0  0  0  0  0  0  0  0  0  0  0
    3.9781    2.7500    0.0000 H   0  0  0  0  0  0  0  0  0  0  0  0
  1 11  1  0  0  0  0
  2  7  1  0  0  0  0
  3  8  1  0  0  0  0
  4  5  1  0  0  0  0
  4  6  1  0  0  0  0
  5  7  2  0  0  0  0
  5  8  1  0  0  0  0
  6 12  1  0  0  0  0
  6 13  1  0  0  0  0
  6 14  1  0  0  0  0
  7  9  1  0  0  0  0
  8 10  2  0  0  0  0
  9 11  2  0  0  0  0
  9 15  1  0  0  0  0
 10 11  1  0  0  0  0
 10 16  1  0  0  0  0
 12 17  1  0  0  0  0
 12 18  1  0  0  0  0
 12 19  1  0  0  0  0
M  END
> <PUBCHEM_COMPOUND_CID>
46739374

> <PUBCHEM_COMPOUND_CANONICALIZED>
1

> <PUBCHEM_CACTVS_COMPLEXITY>
133

> <PUBCHEM_CACTVS_HBOND_ACCEPTOR>
1

> <PUBCHEM_CACTVS_HBOND_DONOR>
0

> <PUBCHEM_CACTVS_ROTATABLE_BOND>
2

> <PUBCHEM_CACTVS_SUBSKEYS>
AAADcYBwIAAGEAAAAAAAAAAAAAAAAAAAAAAwAAAAAAAAAAABAAAAGgJAAAABqAagkCIyBoAABACAACBCAAACCAAgJUQAiAAEC6gMJiOFMxqCOCCkwBEIqheAQAAAABAAAADACAAAIAAAAYAQAAAAAAAAAA==

> <PUBCHEM_IUPAC_OPENEYE_NAME>
5-bromo-1,3-dichloro-2-ethoxy-benzene

> <PUBCHEM_IUPAC_CAS_NAME>
5-bromo-1,3-dichloro-2-ethoxybenzene

> <PUBCHEM_IUPAC_NAME>
5-bromo-1,3-dichloro-2-ethoxybenzene

> <PUBCHEM_IUPAC_SYSTEMATIC_NAME>
5-bromanyl-1,3-bis(chloranyl)-2-ethoxy-benzene

> <PUBCHEM_IUPAC_TRADITIONAL_NAME>
5-bromo-1,3-dichloro-2-ethoxy-benzene

> <PUBCHEM_IUPAC_INCHI>
InChI=1S/C8H7BrCl2O/c1-2-12-8-6(10)3-5(9)4-7(8)11/h3-4H,2H2,1H3

> <PUBCHEM_IUPAC_INCHIKEY>
ZZKRHZRKWYZFPH-UHFFFAOYSA-N

> <PUBCHEM_XLOGP3>
4.5

> <PUBCHEM_EXACT_MASS>
267.905732

> <PUBCHEM_MOLECULAR_FORMULA>
C8H7BrCl2O

> <PUBCHEM_MOLECULAR_WEIGHT>
269.95058

> <PUBCHEM_OPENEYE_CAN_SMILES>
CCOC1=C(C=C(C=C1Cl)Br)Cl

> <PUBCHEM_OPENEYE_ISO_SMILES>
CCOC1=C(C=C(C=C1Cl)Br)Cl

> <PUBCHEM_CACTVS_TPSA>
9.2

> <PUBCHEM_MONOISOTOPIC_WEIGHT>
267.905732

> <PUBCHEM_TOTAL_CHARGE>
0

> <PUBCHEM_HEAVY_ATOM_COUNT>
12

> <PUBCHEM_ATOM_DEF_STEREO_COUNT>
0

> <PUBCHEM_ATOM_UDEF_STEREO_COUNT>
0

> <PUBCHEM_BOND_DEF_STEREO_COUNT>
0

> <PUBCHEM_BOND_UDEF_STEREO_COUNT>
0

> <PUBCHEM_ISOTOPIC_ATOM_COUNT>
0

> <PUBCHEM_COMPONENT_COUNT>
1

> <PUBCHEM_CACTVS_TAUTO_COUNT>
1

> <PUBCHEM_COORDINATE_TYPE>
1
5
255

> <PUBCHEM_BONDANNOTATIONS>
10  11  8
5  7  8
5  8  8
7  9  8
8  10  8
9  11  8

$$$$
46739376
  -OEChem-05231305262D

 22 22  0     0  0  0  0  0  0999 V2000
    3.7320   -2.7500    0.0000 Br  0  0  0  0  0  0  0  0  0  0  0  0
    2.0000    0.2500    0.0000 Cl  0  0  0  0  0  0  0  0  0  0  0  0
    5.4641    0.2500    0.0000 Cl  0  0  0  0  0  0  0  0  0  0  0  0
    3.7320    1.2500    0.0000 O   0  0  0  0  0  0  0  0  0  0  0  0
    4.5981    1.7500    0.0000 C   0  0  0  0  0  0  0  0  0  0  0  0
    4.5981    2.7500    0.0000 C   0  0  0  0  0  0  0  0  0  0  0  0
    5.4641    1.2500    0.0000 C   0  0  0  0  0  0  0  0  0  0  0  0
    3.7320    0.2500    0.0000 C   0  0  0  0  0  0  0  0  0  0  0  0
    2.8660   -0.2500    0.0000 C   0  0  0  0  0  0  0  0  0  0  0  0
    4.5981   -0.2500    0.0000 C   0  0  0  0  0  0  0  0  0  0  0  0
    2.8660   -1.2500    0.0000 C   0  0  0  0  0  0  0  0  0  0  0  0
    4.5981   -1.2500    0.0000 C   0  0  0  0  0  0  0  0  0  0  0  0
    3.7320   -1.7500    0.0000 C   0  0  0  0  0  0  0  0  0  0  0  0
    4.5981    1.1300    0.0000 H   0  0  0  0  0  0  0  0  0  0  0  0
    5.1541    0.7131    0.0000 H   0  0  0  0  0  0  0  0  0  0  0  0
    6.0010    0.9400    0.0000 H   0  0  0  0  0  0  0  0  0  0  0  0
    5.2181    2.7500    0.0000 H   0  0  0  0  0  0  0  0  0  0  0  0
    4.5981    3.3700    0.0000 H   0  0  0  0  0  0  0  0  0  0  0  0
    3.9781    2.7500    0.0000 H   0  0  0  0  0  0  0  0  0  0  0  0
    5.7741    1.7869    0.0000 H   0  0  0  0  0  0  0  0  0  0  0  0
    2.3291   -1.5600    0.0000 H   0  0  0  0  0  0  0  0  0  0  0  0
    5.1350   -1.5600    0.0000 H   0  0  0  0  0  0  0  0  0  0  0  0
  1 13  1  0  0  0  0
  2  9  1  0  0  0  0
  3 10  1  0  0  0  0
  4  5  1  0  0  0  0
  4  8  1  0  0  0  0
  5  6  1  0  0  0  0
  5  7  1  0  0  0  0
  5 14  1  0  0  0  0
  6 17  1  0  0  0  0
  6 18  1  0  0  0  0
  6 19  1  0  0  0  0
  7 15  1  0  0  0  0
  7 16  1  0  0  0  0
  7 20  1  0  0  0  0
  8  9  2  0  0  0  0
  8 10  1  0  0  0  0
  9 11  1  0  0  0  0
 10 12  2  0  0  0  0
 11 13  2  0  0  0  0
 11 21  1  0  0  0  0
 12 13  1  0  0  0  0
 12 22  1  0  0  0  0
M  END
> <PUBCHEM_COMPOUND_CID>
46739376

> <PUBCHEM_COMPOUND_CANONICALIZED>
1

> <PUBCHEM_CACTVS_COMPLEXITY>
154

> <PUBCHEM_CACTVS_HBOND_ACCEPTOR>
1

> <PUBCHEM_CACTVS_HBOND_DONOR>
0

> <PUBCHEM_CACTVS_ROTATABLE_BOND>
2

> <PUBCHEM_CACTVS_SUBSKEYS>
AAADccBwIAAGEAAAAAAAAAAAAAAAAAAAAAAwAAAAAAAAAAABAAAAGgJAAAABqBagkCIyBoAABACAACBCAAACCAAgJUQAiAAEC6gMJiOFMxqCOCCkwBEIqheAQAAAABAAAADACAAAIAAAAYAQAAAAAAAAAA==

> <PUBCHEM_IUPAC_OPENEYE_NAME>
5-bromo-1,3-dichloro-2-isopropoxy-benzene

> <PUBCHEM_IUPAC_CAS_NAME>
5-bromo-1,3-dichloro-2-propan-2-yloxybenzene

> <PUBCHEM_IUPAC_NAME>
5-bromo-1,3-dichloro-2-propan-2-yloxybenzene

> <PUBCHEM_IUPAC_SYSTEMATIC_NAME>
5-bromanyl-1,3-bis(chloranyl)-2-propan-2-yloxy-benzene

> <PUBCHEM_IUPAC_TRADITIONAL_NAME>
5-bromo-1,3-dichloro-2-isopropoxy-benzene

> <PUBCHEM_IUPAC_INCHI>
InChI=1S/C9H9BrCl2O/c1-5(2)13-9-7(11)3-6(10)4-8(9)12/h3-5H,1-2H3

> <PUBCHEM_IUPAC_INCHIKEY>
LUNWKSQFHLDZOY-UHFFFAOYSA-N

> <PUBCHEM_XLOGP3>
4.9

> <PUBCHEM_EXACT_MASS>
281.921382

> <PUBCHEM_MOLECULAR_FORMULA>
C9H9BrCl2O

> <PUBCHEM_MOLECULAR_WEIGHT>
283.97716

> <PUBCHEM_OPENEYE_CAN_SMILES>
CC(C)OC1=C(C=C(C=C1Cl)Br)Cl

> <PUBCHEM_OPENEYE_ISO_SMILES>
CC(C)OC1=C(C=C(C=C1Cl)Br)Cl

> <PUBCHEM_CACTVS_TPSA>
9.2

> <PUBCHEM_MONOISOTOPIC_WEIGHT>
281.921382

> <PUBCHEM_TOTAL_CHARGE>
0

> <PUBCHEM_HEAVY_ATOM_COUNT>
13

> <PUBCHEM_ATOM_DEF_STEREO_COUNT>
0

> <PUBCHEM_ATOM_UDEF_STEREO_COUNT>
0

> <PUBCHEM_BOND_DEF_STEREO_COUNT>
0

> <PUBCHEM_BOND_UDEF_STEREO_COUNT>
0

> <PUBCHEM_ISOTOPIC_ATOM_COUNT>
0

> <PUBCHEM_COMPONENT_COUNT>
1

> <PUBCHEM_CACTVS_TAUTO_COUNT>
1

> <PUBCHEM_COORDINATE_TYPE>
1
5
255

> <PUBCHEM_BONDANNOTATIONS>
10  12  8
11  13  8
12  13  8
8  10  8
8  9  8
9  11  8

$$$$
46739576
  -OEChem-05231305262D

 25 25  0     0  0  0  0  0  0999 V2000
    5.4641   -3.0000    0.0000 Br  0  0  0  0  0  0  0  0  0  0  0  0
    2.0000   -1.0000    0.0000 Cl  0  0  0  0  0  0  0  0  0  0  0  0
    2.8660    0.5000    0.0000 O   0  0  0  0  0  0  0  0  0  0  0  0
    4.5981    0.5000    0.0000 N   0  0  0  0  0  0  0  0  0  0  0  0
    4.5981    1.5000    0.0000 C   0  0  0  0  0  0  0  0  0  0  0  0
    5.4641    2.0000    0.0000 C   0  0  0  0  0  0  0  0  0  0  0  0
    3.7320   -1.0000    0.0000 C   0  0  0  0  0  0  0  0  0  0  0  0
    3.7320    0.0000    0.0000 C   0  0  0  0  0  0  0  0  0  0  0  0
    5.4641    3.0000    0.0000 C   0  0  0  0  0  0  0  0  0  0  0  0
    4.5981   -1.5000    0.0000 C   0  0  0  0  0  0  0  0  0  0  0  0
    2.8660   -1.5000    0.0000 C   0  0  0  0  0  0  0  0  0  0  0  0
    4.5981   -2.5000    0.0000 C   0  0  0  0  0  0  0  0  0  0  0  0
    2.8660   -2.5000    0.0000 C   0  0  0  0  0  0  0  0  0  0  0  0
    3.7320   -3.0000    0.0000 C   0  0  0  0  0  0  0  0  0  0  0  0
    4.3860    2.0826    0.0000 H   0  0  0  0  0  0  0  0  0  0  0  0
    3.9875    1.3923    0.0000 H   0  0  0  0  0  0  0  0  0  0  0  0
    5.6762    1.4174    0.0000 H   0  0  0  0  0  0  0  0  0  0  0  0
    6.0747    2.1077    0.0000 H   0  0  0  0  0  0  0  0  0  0  0  0
    5.1350    0.1900    0.0000 H   0  0  0  0  0  0  0  0  0  0  0  0
    6.0841    3.0000    0.0000 H   0  0  0  0  0  0  0  0  0  0  0  0
    5.4641    3.6200    0.0000 H   0  0  0  0  0  0  0  0  0  0  0  0
    4.8441    3.0000    0.0000 H   0  0  0  0  0  0  0  0  0  0  0  0
    5.1350   -1.1900    0.0000 H   0  0  0  0  0  0  0  0  0  0  0  0
    2.3291   -2.8100    0.0000 H   0  0  0  0  0  0  0  0  0  0  0  0
    3.7320   -3.6200    0.0000 H   0  0  0  0  0  0  0  0  0  0  0  0
  1 12  1  0  0  0  0
  2 11  1  0  0  0  0
  3  8  2  0  0  0  0
  4  5  1  0  0  0  0
  4  8  1  0  0  0  0
  4 19  1  0  0  0  0
  5  6  1  0  0  0  0
  5 15  1  0  0  0  0
  5 16  1  0  0  0  0
  6  9  1  0  0  0  0
  6 17  1  0  0  0  0
  6 18  1  0  0  0  0
  7  8  1  0  0  0  0
  7 10  1  0  0  0  0
  7 11  2  0  0  0  0
  9 20  1  0  0  0  0
  9 21  1  0  0  0  0
  9 22  1  0  0  0  0
 10 12  2  0  0  0  0
 10 23  1  0  0  0  0
 11 13  1  0  0  0  0
 12 14  1  0  0  0  0
 13 14  2  0  0  0  0
 13 24  1  0  0  0  0
 14 25  1  0  0  0  0
M  END
> <PUBCHEM_COMPOUND_CID>
46739576

> <PUBCHEM_COMPOUND_CANONICALIZED>
1

> <PUBCHEM_CACTVS_COMPLEXITY>
201

> <PUBCHEM_CACTVS_HBOND_ACCEPTOR>
1

> <PUBCHEM_CACTVS_HBOND_DONOR>
1

> <PUBCHEM_CACTVS_ROTATABLE_BOND>
3

> <PUBCHEM_CACTVS_SUBSKEYS>
AAADccByIAAEEAAAAAAAAAAAAAAAAAAAAAAwAAAAAAAAAAABAAAAHgJQAAABrALBmCQyAILAAACIAiFSEACCAAAkBQQIiIEIBugIIDKBlxGEIQhglgCIj5cYiACOAAAIEAABAAAAABAgAAIAAAAAAAAAAA==

> <PUBCHEM_IUPAC_OPENEYE_NAME>
5-bromo-2-chloro-N-propyl-benzamide

> <PUBCHEM_IUPAC_CAS_NAME>
5-bromo-2-chloro-N-propylbenzamide

> <PUBCHEM_IUPAC_NAME>
5-bromo-2-chloro-N-propylbenzamide

> <PUBCHEM_IUPAC_SYSTEMATIC_NAME>
5-bromanyl-2-chloranyl-N-propyl-benzamide

> <PUBCHEM_IUPAC_TRADITIONAL_NAME>
5-bromo-2-chloro-N-propyl-benzamide

> <PUBCHEM_IUPAC_INCHI>
InChI=1S/C10H11BrClNO/c1-2-5-13-10(14)8-6-7(11)3-4-9(8)12/h3-4,6H,2,5H2,1H3,(H,13,14)

> <PUBCHEM_IUPAC_INCHIKEY>
CGNHBJMZOHKLGG-UHFFFAOYSA-N

> <PUBCHEM_XLOGP3>
4

> <PUBCHEM_EXACT_MASS>
274.971254

> <PUBCHEM_MOLECULAR_FORMULA>
C10H11BrClNO

> <PUBCHEM_MOLECULAR_WEIGHT>
276.55744

> <PUBCHEM_OPENEYE_CAN_SMILES>
CCCNC(=O)C1=C(C=CC(=C1)Br)Cl

> <PUBCHEM_OPENEYE_ISO_SMILES>
CCCNC(=O)C1=C(C=CC(=C1)Br)Cl

> <PUBCHEM_CACTVS_TPSA>
29.1

> <PUBCHEM_MONOISOTOPIC_WEIGHT>
274.971254

> <PUBCHEM_TOTAL_CHARGE>
0

> <PUBCHEM_HEAVY_ATOM_COUNT>
14

> <PUBCHEM_ATOM_DEF_STEREO_COUNT>
0

> <PUBCHEM_ATOM_UDEF_STEREO_COUNT>
0

> <PUBCHEM_BOND_DEF_STEREO_COUNT>
0

> <PUBCHEM_BOND_UDEF_STEREO_COUNT>
0

> <PUBCHEM_ISOTOPIC_ATOM_COUNT>
0

> <PUBCHEM_COMPONENT_COUNT>
1

> <PUBCHEM_CACTVS_TAUTO_COUNT>
2

> <PUBCHEM_COORDINATE_TYPE>
1
5
255

> <PUBCHEM_BONDANNOTATIONS>
10  12  8
11  13  8
12  14  8
13  14  8
7  10  8
7  11  8

$$$$
46739616
  -OEChem-05231305262D

 17 18  0     0  0  0  0  0  0999 V2000
    2.0000    1.4827    0.0000 Br  0  0  0  0  0  0  0  0  0  0  0  0
    3.7320   -1.5173    0.0000 Cl  0  0  0  0  0  0  0  0  0  0  0  0
    5.4920   -0.5520    0.0000 N   0  0  0  0  0  0  0  0  0  0  0  0
    4.5981    0.9827    0.0000 C   0  0  0  0  0  0  0  0  0  0  0  0
    4.5981   -0.0173    0.0000 C   0  0  0  0  0  0  0  0  0  0  0  0
    3.7320    1.4827    0.0000 C   0  0  0  0  0  0  0  0  0  0  0  0
    3.7320   -0.5173    0.0000 C   0  0  0  0  0  0  0  0  0  0  0  0
    5.4920    1.5173    0.0000 C   0  0  0  0  0  0  0  0  0  0  0  0
    2.8660    0.9827    0.0000 C   0  0  0  0  0  0  0  0  0  0  0  0
    2.8660   -0.0173    0.0000 C   0  0  0  0  0  0  0  0  0  0  0  0
    6.3981    1.0035    0.0000 C   0  0  0  0  0  0  0  0  0  0  0  0
    6.3981   -0.0381    0.0000 C   0  0  0  0  0  0  0  0  0  0  0  0
    3.7320    2.1027    0.0000 H   0  0  0  0  0  0  0  0  0  0  0  0
    5.4848    2.1373    0.0000 H   0  0  0  0  0  0  0  0  0  0  0  0
    2.3291   -0.3273    0.0000 H   0  0  0  0  0  0  0  0  0  0  0  0
    6.9338    1.3156    0.0000 H   0  0  0  0  0  0  0  0  0  0  0  0
    6.9338   -0.3502    0.0000 H   0  0  0  0  0  0  0  0  0  0  0  0
  1  9  1  0  0  0  0
  2  7  1  0  0  0  0
  3  5  1  0  0  0  0
  3 12  2  0  0  0  0
  4  5  1  0  0  0  0
  4  6  2  0  0  0  0
  4  8  1  0  0  0  0
  5  7  2  0  0  0  0
  6  9  1  0  0  0  0
  6 13  1  0  0  0  0
  7 10  1  0  0  0  0
  8 11  2  0  0  0  0
  8 14  1  0  0  0  0
  9 10  2  0  0  0  0
 10 15  1  0  0  0  0
 11 12  1  0  0  0  0
 11 16  1  0  0  0  0
 12 17  1  0  0  0  0
M  END
> <PUBCHEM_COMPOUND_CID>
46739616

> <PUBCHEM_COMPOUND_CANONICALIZED>
1

> <PUBCHEM_CACTVS_COMPLEXITY>
165

> <PUBCHEM_CACTVS_HBOND_ACCEPTOR>
1

> <PUBCHEM_CACTVS_HBOND_DONOR>
0

> <PUBCHEM_CACTVS_ROTATABLE_BOND>
0

> <PUBCHEM_CACTVS_SUBSKEYS>
AAADcYByAAAEEAAAAAAAAAAAAAAAAAAAAAA8QAAAAAAAAACx8AAAHAJAAAABrArBHiQ8wPIIEACgAzRnRACCgCAxByQI2CA4ZrgIIOLBk5HEIAhggADIyhcQgIAOAAAgMABCABAAAEBgAIQAIAAAAAAAAA==

> <PUBCHEM_IUPAC_OPENEYE_NAME>
6-bromo-8-chloro-quinoline

> <PUBCHEM_IUPAC_CAS_NAME>
6-bromo-8-chloroquinoline

> <PUBCHEM_IUPAC_NAME>
6-bromo-8-chloroquinoline

> <PUBCHEM_IUPAC_SYSTEMATIC_NAME>
6-bromanyl-8-chloranyl-quinoline

> <PUBCHEM_IUPAC_TRADITIONAL_NAME>
6-bromo-8-chloro-quinoline

> <PUBCHEM_IUPAC_INCHI>
InChI=1S/C9H5BrClN/c10-7-4-6-2-1-3-12-9(6)8(11)5-7/h1-5H

> <PUBCHEM_IUPAC_INCHIKEY>
BDEUOIMCEVFYET-UHFFFAOYSA-N

> <PUBCHEM_XLOGP3>
3.1

> <PUBCHEM_EXACT_MASS>
240.929389

> <PUBCHEM_MOLECULAR_FORMULA>
C9H5BrClN

> <PUBCHEM_MOLECULAR_WEIGHT>
242.4997

> <PUBCHEM_OPENEYE_CAN_SMILES>
C1=CC2=CC(=CC(=C2N=C1)Cl)Br

> <PUBCHEM_OPENEYE_ISO_SMILES>
C1=CC2=CC(=CC(=C2N=C1)Cl)Br

> <PUBCHEM_CACTVS_TPSA>
12.9

> <PUBCHEM_MONOISOTOPIC_WEIGHT>
240.929389

> <PUBCHEM_TOTAL_CHARGE>
0

> <PUBCHEM_HEAVY_ATOM_COUNT>
12

> <PUBCHEM_ATOM_DEF_STEREO_COUNT>
0

> <PUBCHEM_ATOM_UDEF_STEREO_COUNT>
0

> <PUBCHEM_BOND_DEF_STEREO_COUNT>
0

> <PUBCHEM_BOND_UDEF_STEREO_COUNT>
0

> <PUBCHEM_ISOTOPIC_ATOM_COUNT>
0

> <PUBCHEM_COMPONENT_COUNT>
1

> <PUBCHEM_CACTVS_TAUTO_COUNT>
1

> <PUBCHEM_COORDINATE_TYPE>
1
5
255

> <PUBCHEM_BONDANNOTATIONS>
11  12  8
3  12  8
3  5  8
4  5  8
4  6  8
4  8  8
5  7  8
6  9  8
7  10  8
8  11  8
9  10  8

$$$$
46741339
  -OEChem-05231305262D

 29 30  0     0  0  0  0  0  0999 V2000
    2.8660   -2.1123    0.0000 N   0  0  0  0  0  0  0  0  0  0  0  0
    3.7320    0.3877    0.0000 C   0  0  0  0  0  0  0  0  0  0  0  0
    4.5981    0.8877    0.0000 C   0  0  0  0  0  0  0  0  0  0  0  0
    3.7320   -0.6123    0.0000 C   0  0  0  0  0  0  0  0  0  0  0  0
    2.8660    0.8877    0.0000 C   0  0  0  0  0  0  0  0  0  0  0  0
    4.5981    1.8877    0.0000 C   0  0  0  0  0  0  0  0  0  0  0  0
    2.8660   -1.1123    0.0000 C   0  0  0  0  0  0  0  0  0  0  0  0
    2.8660    1.8877    0.0000 C   0  0  0  0  0  0  0  0  0  0  0  0
    3.7320    2.3877    0.0000 C   0  0  0  0  0  0  0  0  0  0  0  0
    5.4920    0.3530    0.0000 C   0  0  0  0  0  0  0  0  0  0  0  0
    2.0000    0.3877    0.0000 C   0  0  0  0  0  0  0  0  0  0  0  0
    5.4920    2.4223    0.0000 C   0  0  0  0  0  0  0  0  0  0  0  0
    6.3981    0.8669    0.0000 C   0  0  0  0  0  0  0  0  0  0  0  0
    6.3981    1.9085    0.0000 C   0  0  0  0  0  0  0  0  0  0  0  0
    3.9441   -1.1949    0.0000 H   0  0  0  0  0  0  0  0  0  0  0  0
    4.3426   -0.5047    0.0000 H   0  0  0  0  0  0  0  0  0  0  0  0
    2.6540   -0.5297    0.0000 H   0  0  0  0  0  0  0  0  0  0  0  0
    2.2554   -1.2200    0.0000 H   0  0  0  0  0  0  0  0  0  0  0  0
    2.3291    2.1977    0.0000 H   0  0  0  0  0  0  0  0  0  0  0  0
    3.7320    3.0077    0.0000 H   0  0  0  0  0  0  0  0  0  0  0  0
    5.4848   -0.2670    0.0000 H   0  0  0  0  0  0  0  0  0  0  0  0
    1.6900    0.9246    0.0000 H   0  0  0  0  0  0  0  0  0  0  0  0
    1.4631    0.0777    0.0000 H   0  0  0  0  0  0  0  0  0  0  0  0
    2.3100   -0.1493    0.0000 H   0  0  0  0  0  0  0  0  0  0  0  0
    5.4848    3.0423    0.0000 H   0  0  0  0  0  0  0  0  0  0  0  0
    6.9338    0.5548    0.0000 H   0  0  0  0  0  0  0  0  0  0  0  0
    6.9338    2.2205    0.0000 H   0  0  0  0  0  0  0  0  0  0  0  0
    2.3291   -2.4223    0.0000 H   0  0  0  0  0  0  0  0  0  0  0  0
    3.4030   -2.4223    0.0000 H   0  0  0  0  0  0  0  0  0  0  0  0
  1  7  1  0  0  0  0
  1 28  1  0  0  0  0
  1 29  1  0  0  0  0
  2  3  1  0  0  0  0
  2  4  1  0  0  0  0
  2  5  2  0  0  0  0
  3  6  1  0  0  0  0
  3 10  2  0  0  0  0
  4  7  1  0  0  0  0
  4 15  1  0  0  0  0
  4 16  1  0  0  0  0
  5  8  1  0  0  0  0
  5 11  1  0  0  0  0
  6  9  1  0  0  0  0
  6 12  2  0  0  0  0
  7 17  1  0  0  0  0
  7 18  1  0  0  0  0
  8  9  2  0  0  0  0
  8 19  1  0  0  0  0
  9 20  1  0  0  0  0
 10 13  1  0  0  0  0
 10 21  1  0  0  0  0
 11 22  1  0  0  0  0
 11 23  1  0  0  0  0
 11 24  1  0  0  0  0
 12 14  1  0  0  0  0
 12 25  1  0  0  0  0
 13 14  2  0  0  0  0
 13 26  1  0  0  0  0
 14 27  1  0  0  0  0
M  END
> <PUBCHEM_COMPOUND_CID>
46741339

> <PUBCHEM_COMPOUND_CANONICALIZED>
1

> <PUBCHEM_CACTVS_COMPLEXITY>
178

> <PUBCHEM_CACTVS_HBOND_ACCEPTOR>
1

> <PUBCHEM_CACTVS_HBOND_DONOR>
1

> <PUBCHEM_CACTVS_ROTATABLE_BOND>
2

> <PUBCHEM_CACTVS_SUBSKEYS>
AAADccByAAAAAAAAAAAAAAAAAAAAAAAAAAAwYAAAAAAAAADBUAAAHAAQAAAADADBGAQyAMBAAACAAiBCAAACAAAgAAAIiIAAAIgIICKAkRGAIAAgkAAIiAcQgMAOwAACAAAQAACAAAQAACAAAAAAAAAAAA==

> <PUBCHEM_IUPAC_OPENEYE_NAME>
2-(2-methyl-1-naphthyl)ethanamine

> <PUBCHEM_IUPAC_CAS_NAME>
2-(2-methyl-1-naphthalenyl)ethanamine

> <PUBCHEM_IUPAC_NAME>
2-(2-methylnaphthalen-1-yl)ethanamine

> <PUBCHEM_IUPAC_SYSTEMATIC_NAME>
2-(2-methylnaphthalen-1-yl)ethanamine

> <PUBCHEM_IUPAC_TRADITIONAL_NAME>
2-(2-methyl-1-naphthyl)ethylamine

> <PUBCHEM_IUPAC_INCHI>
InChI=1S/C13H15N/c1-10-6-7-11-4-2-3-5-13(11)12(10)8-9-14/h2-7H,8-9,14H2,1H3

> <PUBCHEM_IUPAC_INCHIKEY>
RZPSNQBVZWRFQM-UHFFFAOYSA-N

> <PUBCHEM_XLOGP3>
3.3

> <PUBCHEM_EXACT_MASS>
185.120449

> <PUBCHEM_MOLECULAR_FORMULA>
C13H15N

> <PUBCHEM_MOLECULAR_WEIGHT>
185.2649

> <PUBCHEM_OPENEYE_CAN_SMILES>
CC1=C(C2=CC=CC=C2C=C1)CCN

> <PUBCHEM_OPENEYE_ISO_SMILES>
CC1=C(C2=CC=CC=C2C=C1)CCN

> <PUBCHEM_CACTVS_TPSA>
26

> <PUBCHEM_MONOISOTOPIC_WEIGHT>
185.120449

> <PUBCHEM_TOTAL_CHARGE>
0

> <PUBCHEM_HEAVY_ATOM_COUNT>
14

> <PUBCHEM_ATOM_DEF_STEREO_COUNT>
0

> <PUBCHEM_ATOM_UDEF_STEREO_COUNT>
0

> <PUBCHEM_BOND_DEF_STEREO_COUNT>
0

> <PUBCHEM_BOND_UDEF_STEREO_COUNT>
0

> <PUBCHEM_ISOTOPIC_ATOM_COUNT>
0

> <PUBCHEM_COMPONENT_COUNT>
1

> <PUBCHEM_CACTVS_TAUTO_COUNT>
1

> <PUBCHEM_COORDINATE_TYPE>
1
5
255

> <PUBCHEM_BONDANNOTATIONS>
10  13  8
12  14  8
13  14  8
2  3  8
2  5  8
3  10  8
3  6  8
5  8  8
6  12  8
6  9  8
8  9  8

$$$$
