30100027
  -OEChem-06121304422D

 44 45  0     1  0  0  0  0  0999 V2000
    2.0000   -1.0000    0.0000 Cl  0  0  0  0  0  0  0  0  0  0  0  0
    4.0000   -4.4641    0.0000 Cl  0  0  0  0  0  0  0  0  0  0  0  0
    2.5000   -0.1340    0.0000 O   0  0  0  0  0  0  0  0  0  0  0  0
    4.0000    2.4641    0.0000 N   0  3  0  0  0  0  0  0  0  0  0  0
    4.0000   -1.0000    0.0000 N   0  0  0  0  0  0  0  0  0  0  0  0
    4.8660    3.9641    0.0000 C   0  0  1  0  0  0  0  0  0  0  0  0
    3.1340    3.9641    0.0000 C   0  0  1  0  0  0  0  0  0  0  0  0
    4.8660    2.9641    0.0000 C   0  0  0  0  0  0  0  0  0  0  0  0
    3.1340    2.9641    0.0000 C   0  0  0  0  0  0  0  0  0  0  0  0
    4.0000    4.4641    0.0000 C   0  0  0  0  0  0  0  0  0  0  0  0
    3.5000    1.5981    0.0000 C   0  0  0  0  0  0  0  0  0  0  0  0
    5.7320    4.4641    0.0000 C   0  0  0  0  0  0  0  0  0  0  0  0
    2.2680    4.4641    0.0000 C   0  0  0  0  0  0  0  0  0  0  0  0
    4.0000    0.7321    0.0000 C   0  0  0  0  0  0  0  0  0  0  0  0
    3.5000   -0.1340    0.0000 C   0  0  0  0  0  0  0  0  0  0  0  0
    3.5000   -1.8660    0.0000 C   0  0  0  0  0  0  0  0  0  0  0  0
    2.5000   -1.8660    0.0000 C   0  0  0  0  0  0  0  0  0  0  0  0
    4.0000   -2.7320    0.0000 C   0  0  0  0  0  0  0  0  0  0  0  0
    3.5000   -3.5981    0.0000 C   0  0  0  0  0  0  0  0  0  0  0  0
    2.0000   -2.7320    0.0000 C   0  0  0  0  0  0  0  0  0  0  0  0
    2.5000   -3.5981    0.0000 C   0  0  0  0  0  0  0  0  0  0  0  0
    4.3100    1.9272    0.0000 H   0  0  0  0  0  0  0  0  0  0  0  0
    5.4030    3.6541    0.0000 H   0  0  0  0  0  0  0  0  0  0  0  0
    2.5970    3.6541    0.0000 H   0  0  0  0  0  0  0  0  0  0  0  0
    5.0781    2.3815    0.0000 H   0  0  0  0  0  0  0  0  0  0  0  0
    5.4766    3.0718    0.0000 H   0  0  0  0  0  0  0  0  0  0  0  0
    2.5234    3.0718    0.0000 H   0  0  0  0  0  0  0  0  0  0  0  0
    2.9219    2.3815    0.0000 H   0  0  0  0  0  0  0  0  0  0  0  0
    4.3985    4.9390    0.0000 H   0  0  0  0  0  0  0  0  0  0  0  0
    3.6015    4.9390    0.0000 H   0  0  0  0  0  0  0  0  0  0  0  0
    3.0250    1.9966    0.0000 H   0  0  0  0  0  0  0  0  0  0  0  0
    3.0250    1.1995    0.0000 H   0  0  0  0  0  0  0  0  0  0  0  0
    6.0420    3.9272    0.0000 H   0  0  0  0  0  0  0  0  0  0  0  0
    6.2690    4.7741    0.0000 H   0  0  0  0  0  0  0  0  0  0  0  0
    5.4220    5.0010    0.0000 H   0  0  0  0  0  0  0  0  0  0  0  0
    2.5780    5.0010    0.0000 H   0  0  0  0  0  0  0  0  0  0  0  0
    1.7310    4.7741    0.0000 H   0  0  0  0  0  0  0  0  0  0  0  0
    1.9580    3.9272    0.0000 H   0  0  0  0  0  0  0  0  0  0  0  0
    4.4750    0.3335    0.0000 H   0  0  0  0  0  0  0  0  0  0  0  0
    4.4750    1.1306    0.0000 H   0  0  0  0  0  0  0  0  0  0  0  0
    4.6200   -1.0000    0.0000 H   0  0  0  0  0  0  0  0  0  0  0  0
    4.6200   -2.7320    0.0000 H   0  0  0  0  0  0  0  0  0  0  0  0
    1.3800   -2.7320    0.0000 H   0  0  0  0  0  0  0  0  0  0  0  0
    2.1900   -4.1350    0.0000 H   0  0  0  0  0  0  0  0  0  0  0  0
  1 17  1  0  0  0  0
  2 19  1  0  0  0  0
  3 15  2  0  0  0  0
  4  8  1  0  0  0  0
  4  9  1  0  0  0  0
  4 11  1  0  0  0  0
  4 22  1  0  0  0  0
  5 15  1  0  0  0  0
  5 16  1  0  0  0  0
  5 41  1  0  0  0  0
  6  8  1  0  0  0  0
  6 10  1  0  0  0  0
  6 12  1  1  0  0  0
  6 23  1  0  0  0  0
  7  9  1  0  0  0  0
  7 10  1  0  0  0  0
  7 13  1  6  0  0  0
  7 24  1  0  0  0  0
  8 25  1  0  0  0  0
  8 26  1  0  0  0  0
  9 27  1  0  0  0  0
  9 28  1  0  0  0  0
 10 29  1  0  0  0  0
 10 30  1  0  0  0  0
 11 14  1  0  0  0  0
 11 31  1  0  0  0  0
 11 32  1  0  0  0  0
 12 33  1  0  0  0  0
 12 34  1  0  0  0  0
 12 35  1  0  0  0  0
 13 36  1  0  0  0  0
 13 37  1  0  0  0  0
 13 38  1  0  0  0  0
 14 15  1  0  0  0  0
 14 39  1  0  0  0  0
 14 40  1  0  0  0  0
 16 17  2  0  0  0  0
 16 18  1  0  0  0  0
 17 20  1  0  0  0  0
 18 19  2  0  0  0  0
 18 42  1  0  0  0  0
 19 21  1  0  0  0  0
 20 21  2  0  0  0  0
 20 43  1  0  0  0  0
 21 44  1  0  0  0  0
M  CHG  1   4   1
M  END
> <PUBCHEM_COMPOUND_CID>
30100027

> <PUBCHEM_COMPOUND_CANONICALIZED>
1

> <PUBCHEM_CACTVS_COMPLEXITY>
343

> <PUBCHEM_CACTVS_HBOND_ACCEPTOR>
1

> <PUBCHEM_CACTVS_HBOND_DONOR>
2

> <PUBCHEM_CACTVS_ROTATABLE_BOND>
4

> <PUBCHEM_CACTVS_SUBSKEYS>
AAADceB7IAAGAAAAAAAAAAAAAAAAAAAAAAA8QAAAAAAAAAABAAAAHgIQAAAADQrBkCQywIPAAACIACVSUACCAAAhBwAIiIEIZogIICrB05HEIAhglADIyAcQAAAMAAAQAAIAABAAACAABAAAIAAAAAAAAA==

> <PUBCHEM_IUPAC_OPENEYE_NAME>
N-(2,5-dichlorophenyl)-3-[(3R,5R)-3,5-dimethylpiperidin-1-ium-1-yl]propanamide

> <PUBCHEM_IUPAC_CAS_NAME>
N-(2,5-dichlorophenyl)-3-[(3R,5R)-3,5-dimethyl-1-piperidin-1-iumyl]propanamide

> <PUBCHEM_IUPAC_NAME>
N-(2,5-dichlorophenyl)-3-[(3R,5R)-3,5-dimethylpiperidin-1-ium-1-yl]propanamide

> <PUBCHEM_IUPAC_SYSTEMATIC_NAME>
N-[2,5-bis(chloranyl)phenyl]-3-[(3R,5R)-3,5-dimethylpiperidin-1-ium-1-yl]propanamide

> <PUBCHEM_IUPAC_TRADITIONAL_NAME>
N-(2,5-dichlorophenyl)-3-[(3R,5R)-3,5-dimethylpiperidin-1-ium-1-yl]propionamide

> <PUBCHEM_IUPAC_INCHI>
InChI=1S/C16H22Cl2N2O/c1-11-7-12(2)10-20(9-11)6-5-16(21)19-15-8-13(17)3-4-14(15)18/h3-4,8,11-12H,5-7,9-10H2,1-2H3,(H,19,21)/p+1/t11-,12-/m1/s1

> <PUBCHEM_IUPAC_INCHIKEY>
FDKNDYJQGGZNFY-VXGBXAGGSA-O

> <PUBCHEM_XLOGP3>
3.9

> <PUBCHEM_EXACT_MASS>
329.118744

> <PUBCHEM_MOLECULAR_FORMULA>
C16H23Cl2N2O+

> <PUBCHEM_MOLECULAR_WEIGHT>
330.27262

> <PUBCHEM_OPENEYE_CAN_SMILES>
CC1CC(C[NH+](C1)CCC(=O)NC2=C(C=CC(=C2)Cl)Cl)C

> <PUBCHEM_OPENEYE_ISO_SMILES>
C[C@@H]1C[C@H](C[NH+](C1)CCC(=O)NC2=C(C=CC(=C2)Cl)Cl)C

> <PUBCHEM_CACTVS_TPSA>
33.5

> <PUBCHEM_MONOISOTOPIC_WEIGHT>
329.118744

> <PUBCHEM_TOTAL_CHARGE>
1

> <PUBCHEM_HEAVY_ATOM_COUNT>
21

> <PUBCHEM_ATOM_DEF_STEREO_COUNT>
2

> <PUBCHEM_ATOM_UDEF_STEREO_COUNT>
0

> <PUBCHEM_BOND_DEF_STEREO_COUNT>
0

> <PUBCHEM_BOND_UDEF_STEREO_COUNT>
0

> <PUBCHEM_ISOTOPIC_ATOM_COUNT>
0

> <PUBCHEM_COMPONENT_COUNT>
1

> <PUBCHEM_CACTVS_TAUTO_COUNT>
3

> <PUBCHEM_COORDINATE_TYPE>
1
5
255

> <PUBCHEM_BONDANNOTATIONS>
16  17  8
16  18  8
17  20  8
18  19  8
19  21  8
20  21  8
6  12  5
7  13  6

$$$$
30100030
  -OEChem-06121304422D

 44 45  0     1  0  0  0  0  0999 V2000
    2.0000   -1.0000    0.0000 Cl  0  0  0  0  0  0  0  0  0  0  0  0
    4.0000   -4.4641    0.0000 Cl  0  0  0  0  0  0  0  0  0  0  0  0
    2.5000   -0.1340    0.0000 O   0  0  0  0  0  0  0  0  0  0  0  0
    4.0000    2.4641    0.0000 N   0  3  0  0  0  0  0  0  0  0  0  0
    4.0000   -1.0000    0.0000 N   0  0  0  0  0  0  0  0  0  0  0  0
    3.1340    3.9641    0.0000 C   0  0  1  0  0  0  0  0  0  0  0  0
    4.8660    3.9641    0.0000 C   0  0  2  0  0  0  0  0  0  0  0  0
    3.1340    2.9641    0.0000 C   0  0  0  0  0  0  0  0  0  0  0  0
    4.8660    2.9641    0.0000 C   0  0  0  0  0  0  0  0  0  0  0  0
    4.0000    4.4641    0.0000 C   0  0  0  0  0  0  0  0  0  0  0  0
    3.5000    1.5981    0.0000 C   0  0  0  0  0  0  0  0  0  0  0  0
    2.2680    4.4641    0.0000 C   0  0  0  0  0  0  0  0  0  0  0  0
    5.7320    4.4641    0.0000 C   0  0  0  0  0  0  0  0  0  0  0  0
    4.0000    0.7321    0.0000 C   0  0  0  0  0  0  0  0  0  0  0  0
    3.5000   -0.1340    0.0000 C   0  0  0  0  0  0  0  0  0  0  0  0
    3.5000   -1.8660    0.0000 C   0  0  0  0  0  0  0  0  0  0  0  0
    2.5000   -1.8660    0.0000 C   0  0  0  0  0  0  0  0  0  0  0  0
    4.0000   -2.7320    0.0000 C   0  0  0  0  0  0  0  0  0  0  0  0
    3.5000   -3.5981    0.0000 C   0  0  0  0  0  0  0  0  0  0  0  0
    2.0000   -2.7320    0.0000 C   0  0  0  0  0  0  0  0  0  0  0  0
    2.5000   -3.5981    0.0000 C   0  0  0  0  0  0  0  0  0  0  0  0
    4.3100    1.9272    0.0000 H   0  0  0  0  0  0  0  0  0  0  0  0
    2.5970    3.6541    0.0000 H   0  0  0  0  0  0  0  0  0  0  0  0
    5.4030    3.6541    0.0000 H   0  0  0  0  0  0  0  0  0  0  0  0
    2.5234    3.0718    0.0000 H   0  0  0  0  0  0  0  0  0  0  0  0
    2.9219    2.3815    0.0000 H   0  0  0  0  0  0  0  0  0  0  0  0
    5.0781    2.3815    0.0000 H   0  0  0  0  0  0  0  0  0  0  0  0
    5.4766    3.0718    0.0000 H   0  0  0  0  0  0  0  0  0  0  0  0
    4.3985    4.9390    0.0000 H   0  0  0  0  0  0  0  0  0  0  0  0
    3.6015    4.9390    0.0000 H   0  0  0  0  0  0  0  0  0  0  0  0
    3.0250    1.9966    0.0000 H   0  0  0  0  0  0  0  0  0  0  0  0
    3.0250    1.1995    0.0000 H   0  0  0  0  0  0  0  0  0  0  0  0
    2.5780    5.0010    0.0000 H   0  0  0  0  0  0  0  0  0  0  0  0
    6.0420    3.9272    0.0000 H   0  0  0  0  0  0  0  0  0  0  0  0
    6.2690    4.7741    0.0000 H   0  0  0  0  0  0  0  0  0  0  0  0
    5.4220    5.0010    0.0000 H   0  0  0  0  0  0  0  0  0  0  0  0
    1.7310    4.7741    0.0000 H   0  0  0  0  0  0  0  0  0  0  0  0
    1.9580    3.9272    0.0000 H   0  0  0  0  0  0  0  0  0  0  0  0
    4.4750    0.3335    0.0000 H   0  0  0  0  0  0  0  0  0  0  0  0
    4.4750    1.1306    0.0000 H   0  0  0  0  0  0  0  0  0  0  0  0
    4.6200   -1.0000    0.0000 H   0  0  0  0  0  0  0  0  0  0  0  0
    4.6200   -2.7320    0.0000 H   0  0  0  0  0  0  0  0  0  0  0  0
    1.3800   -2.7320    0.0000 H   0  0  0  0  0  0  0  0  0  0  0  0
    2.1900   -4.1350    0.0000 H   0  0  0  0  0  0  0  0  0  0  0  0
  1 17  1  0  0  0  0
  2 19  1  0  0  0  0
  3 15  2  0  0  0  0
  4  8  1  0  0  0  0
  4  9  1  0  0  0  0
  4 11  1  0  0  0  0
  4 22  1  0  0  0  0
  5 15  1  0  0  0  0
  5 16  1  0  0  0  0
  5 41  1  0  0  0  0
  6  8  1  0  0  0  0
  6 10  1  0  0  0  0
  6 12  1  6  0  0  0
  6 23  1  0  0  0  0
  7  9  1  0  0  0  0
  7 10  1  0  0  0  0
  7 13  1  6  0  0  0
  7 24  1  0  0  0  0
  8 25  1  0  0  0  0
  8 26  1  0  0  0  0
  9 27  1  0  0  0  0
  9 28  1  0  0  0  0
 10 29  1  0  0  0  0
 10 30  1  0  0  0  0
 11 14  1  0  0  0  0
 11 31  1  0  0  0  0
 11 32  1  0  0  0  0
 12 33  1  0  0  0  0
 12 37  1  0  0  0  0
 12 38  1  0  0  0  0
 13 34  1  0  0  0  0
 13 35  1  0  0  0  0
 13 36  1  0  0  0  0
 14 15  1  0  0  0  0
 14 39  1  0  0  0  0
 14 40  1  0  0  0  0
 16 17  2  0  0  0  0
 16 18  1  0  0  0  0
 17 20  1  0  0  0  0
 18 19  2  0  0  0  0
 18 42  1  0  0  0  0
 19 21  1  0  0  0  0
 20 21  2  0  0  0  0
 20 43  1  0  0  0  0
 21 44  1  0  0  0  0
M  CHG  1   4   1
M  END
> <PUBCHEM_COMPOUND_CID>
30100030

> <PUBCHEM_COMPOUND_CANONICALIZED>
1

> <PUBCHEM_CACTVS_COMPLEXITY>
343

> <PUBCHEM_CACTVS_HBOND_ACCEPTOR>
1

> <PUBCHEM_CACTVS_HBOND_DONOR>
2

> <PUBCHEM_CACTVS_ROTATABLE_BOND>
4

> <PUBCHEM_CACTVS_SUBSKEYS>
AAADceB7IAAGAAAAAAAAAAAAAAAAAAAAAAA8QAAAAAAAAAABAAAAHgIQAAAADQrBkCQywIPAAACIACVSUACCAAAhBwAIiIEIZogIICrB05HEIAhglADIyAcQAAAMAAAQAAIAABAAACAABAAAIAAAAAAAAA==

> <PUBCHEM_IUPAC_OPENEYE_NAME>
N-(2,5-dichlorophenyl)-3-[(3R,5S)-3,5-dimethylpiperidin-1-ium-1-yl]propanamide

> <PUBCHEM_IUPAC_CAS_NAME>
N-(2,5-dichlorophenyl)-3-[(3R,5S)-3,5-dimethyl-1-piperidin-1-iumyl]propanamide

> <PUBCHEM_IUPAC_NAME>
N-(2,5-dichlorophenyl)-3-[(3R,5S)-3,5-dimethylpiperidin-1-ium-1-yl]propanamide

> <PUBCHEM_IUPAC_SYSTEMATIC_NAME>
N-[2,5-bis(chloranyl)phenyl]-3-[(3R,5S)-3,5-dimethylpiperidin-1-ium-1-yl]propanamide

> <PUBCHEM_IUPAC_TRADITIONAL_NAME>
N-(2,5-dichlorophenyl)-3-[(3R,5S)-3,5-dimethylpiperidin-1-ium-1-yl]propionamide

> <PUBCHEM_IUPAC_INCHI>
InChI=1S/C16H22Cl2N2O/c1-11-7-12(2)10-20(9-11)6-5-16(21)19-15-8-13(17)3-4-14(15)18/h3-4,8,11-12H,5-7,9-10H2,1-2H3,(H,19,21)/p+1/t11-,12+

> <PUBCHEM_IUPAC_INCHIKEY>
FDKNDYJQGGZNFY-TXEJJXNPSA-O

> <PUBCHEM_XLOGP3>
3.9

> <PUBCHEM_EXACT_MASS>
329.118744

> <PUBCHEM_MOLECULAR_FORMULA>
C16H23Cl2N2O+

> <PUBCHEM_MOLECULAR_WEIGHT>
330.27262

> <PUBCHEM_OPENEYE_CAN_SMILES>
CC1CC(C[NH+](C1)CCC(=O)NC2=C(C=CC(=C2)Cl)Cl)C

> <PUBCHEM_OPENEYE_ISO_SMILES>
C[C@@H]1C[C@@H](C[NH+](C1)CCC(=O)NC2=C(C=CC(=C2)Cl)Cl)C

> <PUBCHEM_CACTVS_TPSA>
33.5

> <PUBCHEM_MONOISOTOPIC_WEIGHT>
329.118744

> <PUBCHEM_TOTAL_CHARGE>
1

> <PUBCHEM_HEAVY_ATOM_COUNT>
21

> <PUBCHEM_ATOM_DEF_STEREO_COUNT>
2

> <PUBCHEM_ATOM_UDEF_STEREO_COUNT>
0

> <PUBCHEM_BOND_DEF_STEREO_COUNT>
0

> <PUBCHEM_BOND_UDEF_STEREO_COUNT>
0

> <PUBCHEM_ISOTOPIC_ATOM_COUNT>
0

> <PUBCHEM_COMPONENT_COUNT>
1

> <PUBCHEM_CACTVS_TAUTO_COUNT>
3

> <PUBCHEM_COORDINATE_TYPE>
1
5
255

> <PUBCHEM_BONDANNOTATIONS>
16  17  8
16  18  8
17  20  8
18  19  8
19  21  8
20  21  8
6  12  6
7  13  6

$$$$
30100035
  -OEChem-06121304422D

 44 45  0     1  0  0  0  0  0999 V2000
    2.0000   -1.0000    0.0000 Cl  0  0  0  0  0  0  0  0  0  0  0  0
    4.0000   -4.4641    0.0000 Cl  0  0  0  0  0  0  0  0  0  0  0  0
    2.5000   -0.1340    0.0000 O   0  0  0  0  0  0  0  0  0  0  0  0
    4.0000    2.4641    0.0000 N   0  3  0  0  0  0  0  0  0  0  0  0
    4.0000   -1.0000    0.0000 N   0  0  0  0  0  0  0  0  0  0  0  0
    3.1340    3.9641    0.0000 C   0  0  2  0  0  0  0  0  0  0  0  0
    4.8660    3.9641    0.0000 C   0  0  2  0  0  0  0  0  0  0  0  0
    3.1340    2.9641    0.0000 C   0  0  0  0  0  0  0  0  0  0  0  0
    4.8660    2.9641    0.0000 C   0  0  0  0  0  0  0  0  0  0  0  0
    4.0000    4.4641    0.0000 C   0  0  0  0  0  0  0  0  0  0  0  0
    3.5000    1.5981    0.0000 C   0  0  0  0  0  0  0  0  0  0  0  0
    2.2680    4.4641    0.0000 C   0  0  0  0  0  0  0  0  0  0  0  0
    5.7320    4.4641    0.0000 C   0  0  0  0  0  0  0  0  0  0  0  0
    4.0000    0.7321    0.0000 C   0  0  0  0  0  0  0  0  0  0  0  0
    3.5000   -0.1340    0.0000 C   0  0  0  0  0  0  0  0  0  0  0  0
    3.5000   -1.8660    0.0000 C   0  0  0  0  0  0  0  0  0  0  0  0
    2.5000   -1.8660    0.0000 C   0  0  0  0  0  0  0  0  0  0  0  0
    4.0000   -2.7320    0.0000 C   0  0  0  0  0  0  0  0  0  0  0  0
    3.5000   -3.5981    0.0000 C   0  0  0  0  0  0  0  0  0  0  0  0
    2.0000   -2.7320    0.0000 C   0  0  0  0  0  0  0  0  0  0  0  0
    2.5000   -3.5981    0.0000 C   0  0  0  0  0  0  0  0  0  0  0  0
    4.3100    1.9272    0.0000 H   0  0  0  0  0  0  0  0  0  0  0  0
    2.5970    3.6541    0.0000 H   0  0  0  0  0  0  0  0  0  0  0  0
    5.4030    3.6541    0.0000 H   0  0  0  0  0  0  0  0  0  0  0  0
    2.5234    3.0718    0.0000 H   0  0  0  0  0  0  0  0  0  0  0  0
    2.9219    2.3815    0.0000 H   0  0  0  0  0  0  0  0  0  0  0  0
    5.0781    2.3815    0.0000 H   0  0  0  0  0  0  0  0  0  0  0  0
    5.4766    3.0718    0.0000 H   0  0  0  0  0  0  0  0  0  0  0  0
    4.3985    4.9390    0.0000 H   0  0  0  0  0  0  0  0  0  0  0  0
    3.6015    4.9390    0.0000 H   0  0  0  0  0  0  0  0  0  0  0  0
    3.0250    1.9966    0.0000 H   0  0  0  0  0  0  0  0  0  0  0  0
    3.0250    1.1995    0.0000 H   0  0  0  0  0  0  0  0  0  0  0  0
    2.5780    5.0010    0.0000 H   0  0  0  0  0  0  0  0  0  0  0  0
    1.7310    4.7741    0.0000 H   0  0  0  0  0  0  0  0  0  0  0  0
    1.9580    3.9272    0.0000 H   0  0  0  0  0  0  0  0  0  0  0  0
    6.0420    3.9272    0.0000 H   0  0  0  0  0  0  0  0  0  0  0  0
    6.2690    4.7741    0.0000 H   0  0  0  0  0  0  0  0  0  0  0  0
    5.4220    5.0010    0.0000 H   0  0  0  0  0  0  0  0  0  0  0  0
    4.4750    0.3335    0.0000 H   0  0  0  0  0  0  0  0  0  0  0  0
    4.4750    1.1306    0.0000 H   0  0  0  0  0  0  0  0  0  0  0  0
    4.6200   -1.0000    0.0000 H   0  0  0  0  0  0  0  0  0  0  0  0
    4.6200   -2.7320    0.0000 H   0  0  0  0  0  0  0  0  0  0  0  0
    1.3800   -2.7320    0.0000 H   0  0  0  0  0  0  0  0  0  0  0  0
    2.1900   -4.1350    0.0000 H   0  0  0  0  0  0  0  0  0  0  0  0
  1 17  1  0  0  0  0
  2 19  1  0  0  0  0
  3 15  2  0  0  0  0
  4  8  1  0  0  0  0
  4  9  1  0  0  0  0
  4 11  1  0  0  0  0
  4 22  1  0  0  0  0
  5 15  1  0  0  0  0
  5 16  1  0  0  0  0
  5 41  1  0  0  0  0
  6  8  1  0  0  0  0
  6 10  1  0  0  0  0
  6 12  1  1  0  0  0
  6 23  1  0  0  0  0
  7  9  1  0  0  0  0
  7 10  1  0  0  0  0
  7 13  1  6  0  0  0
  7 24  1  0  0  0  0
  8 25  1  0  0  0  0
  8 26  1  0  0  0  0
  9 27  1  0  0  0  0
  9 28  1  0  0  0  0
 10 29  1  0  0  0  0
 10 30  1  0  0  0  0
 11 14  1  0  0  0  0
 11 31  1  0  0  0  0
 11 32  1  0  0  0  0
 12 33  1  0  0  0  0
 12 34  1  0  0  0  0
 12 35  1  0  0  0  0
 13 36  1  0  0  0  0
 13 37  1  0  0  0  0
 13 38  1  0  0  0  0
 14 15  1  0  0  0  0
 14 39  1  0  0  0  0
 14 40  1  0  0  0  0
 16 17  2  0  0  0  0
 16 18  1  0  0  0  0
 17 20  1  0  0  0  0
 18 19  2  0  0  0  0
 18 42  1  0  0  0  0
 19 21  1  0  0  0  0
 20 21  2  0  0  0  0
 20 43  1  0  0  0  0
 21 44  1  0  0  0  0
M  CHG  1   4   1
M  END
> <PUBCHEM_COMPOUND_CID>
30100035

> <PUBCHEM_COMPOUND_CANONICALIZED>
1

> <PUBCHEM_CACTVS_COMPLEXITY>
343

> <PUBCHEM_CACTVS_HBOND_ACCEPTOR>
1

> <PUBCHEM_CACTVS_HBOND_DONOR>
2

> <PUBCHEM_CACTVS_ROTATABLE_BOND>
4

> <PUBCHEM_CACTVS_SUBSKEYS>
AAADceB7IAAGAAAAAAAAAAAAAAAAAAAAAAA8QAAAAAAAAAABAAAAHgIQAAAADQrBkCQywIPAAACIACVSUACCAAAhBwAIiIEIZogIICrB05HEIAhglADIyAcQAAAMAAAQAAIAABAAACAABAAAIAAAAAAAAA==

> <PUBCHEM_IUPAC_OPENEYE_NAME>
N-(2,5-dichlorophenyl)-3-[(3S,5S)-3,5-dimethylpiperidin-1-ium-1-yl]propanamide

> <PUBCHEM_IUPAC_CAS_NAME>
N-(2,5-dichlorophenyl)-3-[(3S,5S)-3,5-dimethyl-1-piperidin-1-iumyl]propanamide

> <PUBCHEM_IUPAC_NAME>
N-(2,5-dichlorophenyl)-3-[(3S,5S)-3,5-dimethylpiperidin-1-ium-1-yl]propanamide

> <PUBCHEM_IUPAC_SYSTEMATIC_NAME>
N-[2,5-bis(chloranyl)phenyl]-3-[(3S,5S)-3,5-dimethylpiperidin-1-ium-1-yl]propanamide

> <PUBCHEM_IUPAC_TRADITIONAL_NAME>
N-(2,5-dichlorophenyl)-3-[(3S,5S)-3,5-dimethylpiperidin-1-ium-1-yl]propionamide

> <PUBCHEM_IUPAC_INCHI>
InChI=1S/C16H22Cl2N2O/c1-11-7-12(2)10-20(9-11)6-5-16(21)19-15-8-13(17)3-4-14(15)18/h3-4,8,11-12H,5-7,9-10H2,1-2H3,(H,19,21)/p+1/t11-,12-/m0/s1

> <PUBCHEM_IUPAC_INCHIKEY>
FDKNDYJQGGZNFY-RYUDHWBXSA-O

> <PUBCHEM_XLOGP3>
3.9

> <PUBCHEM_EXACT_MASS>
329.118744

> <PUBCHEM_MOLECULAR_FORMULA>
C16H23Cl2N2O+

> <PUBCHEM_MOLECULAR_WEIGHT>
330.27262

> <PUBCHEM_OPENEYE_CAN_SMILES>
CC1CC(C[NH+](C1)CCC(=O)NC2=C(C=CC(=C2)Cl)Cl)C

> <PUBCHEM_OPENEYE_ISO_SMILES>
C[C@H]1C[C@@H](C[NH+](C1)CCC(=O)NC2=C(C=CC(=C2)Cl)Cl)C

> <PUBCHEM_CACTVS_TPSA>
33.5

> <PUBCHEM_MONOISOTOPIC_WEIGHT>
329.118744

> <PUBCHEM_TOTAL_CHARGE>
1

> <PUBCHEM_HEAVY_ATOM_COUNT>
21

> <PUBCHEM_ATOM_DEF_STEREO_COUNT>
2

> <PUBCHEM_ATOM_UDEF_STEREO_COUNT>
0

> <PUBCHEM_BOND_DEF_STEREO_COUNT>
0

> <PUBCHEM_BOND_UDEF_STEREO_COUNT>
0

> <PUBCHEM_ISOTOPIC_ATOM_COUNT>
0

> <PUBCHEM_COMPONENT_COUNT>
1

> <PUBCHEM_CACTVS_TAUTO_COUNT>
3

> <PUBCHEM_COORDINATE_TYPE>
1
5
255

> <PUBCHEM_BONDANNOTATIONS>
16  17  8
16  18  8
17  20  8
18  19  8
19  21  8
20  21  8
6  12  5
7  13  6

$$$$
30110605
  -OEChem-06121304422D

 25 25  0     0  0  0  0  0  0999 V2000
    2.8660   -2.2685    0.0000 O   0  0  0  0  0  0  0  0  0  0  0  0
    5.4641    2.2315    0.0000 N   0  3  0  0  0  0  0  0  0  0  0  0
    4.5981    0.7315    0.0000 C   0  0  0  0  0  0  0  0  0  0  0  0
    3.7320   -0.7685    0.0000 C   0  0  0  0  0  0  0  0  0  0  0  0
    4.5981    1.7315    0.0000 C   0  0  0  0  0  0  0  0  0  0  0  0
    3.7320    0.2315    0.0000 C   0  0  0  0  0  0  0  0  0  0  0  0
    5.4641    0.2315    0.0000 C   0  0  0  0  0  0  0  0  0  0  0  0
    2.8660   -1.2685    0.0000 C   0  0  0  0  0  0  0  0  0  0  0  0
    4.5981   -1.2685    0.0000 C   0  0  0  0  0  0  0  0  0  0  0  0
    5.4641   -0.7685    0.0000 C   0  0  0  0  0  0  0  0  0  0  0  0
    2.0000   -2.7685    0.0000 C   0  0  0  0  0  0  0  0  0  0  0  0
    4.3860    2.3141    0.0000 H   0  0  0  0  0  0  0  0  0  0  0  0
    3.9875    1.6239    0.0000 H   0  0  0  0  0  0  0  0  0  0  0  0
    3.1951    0.5415    0.0000 H   0  0  0  0  0  0  0  0  0  0  0  0
    6.0010    0.5415    0.0000 H   0  0  0  0  0  0  0  0  0  0  0  0
    2.6540   -0.6859    0.0000 H   0  0  0  0  0  0  0  0  0  0  0  0
    2.2554   -1.3761    0.0000 H   0  0  0  0  0  0  0  0  0  0  0  0
    4.5981   -1.8885    0.0000 H   0  0  0  0  0  0  0  0  0  0  0  0
    6.0010   -1.0785    0.0000 H   0  0  0  0  0  0  0  0  0  0  0  0
    6.0010    2.5415    0.0000 H   0  0  0  0  0  0  0  0  0  0  0  0
    5.1541    2.7685    0.0000 H   0  0  0  0  0  0  0  0  0  0  0  0
    5.7741    1.6946    0.0000 H   0  0  0  0  0  0  0  0  0  0  0  0
    1.6900   -2.2315    0.0000 H   0  0  0  0  0  0  0  0  0  0  0  0
    1.4631   -3.0785    0.0000 H   0  0  0  0  0  0  0  0  0  0  0  0
    2.3100   -3.3054    0.0000 H   0  0  0  0  0  0  0  0  0  0  0  0
  1  8  1  0  0  0  0
  1 11  1  0  0  0  0
  2  5  1  0  0  0  0
  2 20  1  0  0  0  0
  2 21  1  0  0  0  0
  2 22  1  0  0  0  0
  3  5  1  0  0  0  0
  3  6  2  0  0  0  0
  3  7  1  0  0  0  0
  4  6  1  0  0  0  0
  4  8  1  0  0  0  0
  4  9  2  0  0  0  0
  5 12  1  0  0  0  0
  5 13  1  0  0  0  0
  6 14  1  0  0  0  0
  7 10  2  0  0  0  0
  7 15  1  0  0  0  0
  8 16  1  0  0  0  0
  8 17  1  0  0  0  0
  9 10  1  0  0  0  0
  9 18  1  0  0  0  0
 10 19  1  0  0  0  0
 11 23  1  0  0  0  0
 11 24  1  0  0  0  0
 11 25  1  0  0  0  0
M  CHG  1   2   1
M  END
> <PUBCHEM_COMPOUND_CID>
30110605

> <PUBCHEM_COMPOUND_CANONICALIZED>
1

> <PUBCHEM_CACTVS_COMPLEXITY>
106

> <PUBCHEM_CACTVS_HBOND_ACCEPTOR>
1

> <PUBCHEM_CACTVS_HBOND_DONOR>
1

> <PUBCHEM_CACTVS_ROTATABLE_BOND>
3

> <PUBCHEM_CACTVS_SUBSKEYS>
AAADccByIAAAAAAAAAAAAAAAAAAAAAAAAAAwAAAAAAAAAAABAAAAHgAQAAAADADhmAYyAIBABACAAiBCAACCAAAgAAAIiIAADIgIJiKAsRmAMABkwAEIqAeQ0GAOAAACAAAAAAAAAAQAAAAAAAAAAAAAAA==

> <PUBCHEM_IUPAC_OPENEYE_NAME>
[3-(methoxymethyl)phenyl]methylammonium

> <PUBCHEM_IUPAC_CAS_NAME>
[3-(methoxymethyl)phenyl]methylammonium

> <PUBCHEM_IUPAC_NAME>
[3-(methoxymethyl)phenyl]methylazanium

> <PUBCHEM_IUPAC_SYSTEMATIC_NAME>
[3-(methoxymethyl)phenyl]methylazanium

> <PUBCHEM_IUPAC_TRADITIONAL_NAME>
[3-(methoxymethyl)benzyl]ammonium

> <PUBCHEM_IUPAC_INCHI>
InChI=1S/C9H13NO/c1-11-7-9-4-2-3-8(5-9)6-10/h2-5H,6-7,10H2,1H3/p+1

> <PUBCHEM_IUPAC_INCHIKEY>
SASCLRJDYCGASV-UHFFFAOYSA-O

> <PUBCHEM_XLOGP3>
0.8

> <PUBCHEM_EXACT_MASS>
152.107539

> <PUBCHEM_MOLECULAR_FORMULA>
C9H14NO+

> <PUBCHEM_MOLECULAR_WEIGHT>
152.21356

> <PUBCHEM_OPENEYE_CAN_SMILES>
COCC1=CC=CC(=C1)C[NH3+]

> <PUBCHEM_OPENEYE_ISO_SMILES>
COCC1=CC=CC(=C1)C[NH3+]

> <PUBCHEM_CACTVS_TPSA>
36.9

> <PUBCHEM_MONOISOTOPIC_WEIGHT>
152.107539

> <PUBCHEM_TOTAL_CHARGE>
1

> <PUBCHEM_HEAVY_ATOM_COUNT>
11

> <PUBCHEM_ATOM_DEF_STEREO_COUNT>
0

> <PUBCHEM_ATOM_UDEF_STEREO_COUNT>
0

> <PUBCHEM_BOND_DEF_STEREO_COUNT>
0

> <PUBCHEM_BOND_UDEF_STEREO_COUNT>
0

> <PUBCHEM_ISOTOPIC_ATOM_COUNT>
0

> <PUBCHEM_COMPONENT_COUNT>
1

> <PUBCHEM_CACTVS_TAUTO_COUNT>
1

> <PUBCHEM_COORDINATE_TYPE>
1
5
255

> <PUBCHEM_BONDANNOTATIONS>
3  6  8
3  7  8
4  6  8
4  9  8
7  10  8
9  10  8

$$$$
30115116
  -OEChem-06121304422D

 35 36  0     0  0  0  0  0  0999 V2000
    4.5981   -1.2685    0.0000 O   0  0  0  0  0  0  0  0  0  0  0  0
    6.3301    3.7315    0.0000 N   0  3  0  0  0  0  0  0  0  0  0  0
    5.4641    0.2315    0.0000 C   0  0  0  0  0  0  0  0  0  0  0  0
    5.4641    2.2315    0.0000 C   0  0  0  0  0  0  0  0  0  0  0  0
    5.4641   -0.7685    0.0000 C   0  0  0  0  0  0  0  0  0  0  0  0
    5.4641    3.2315    0.0000 C   0  0  0  0  0  0  0  0  0  0  0  0
    4.5981    0.7315    0.0000 C   0  0  0  0  0  0  0  0  0  0  0  0
    6.3301    0.7315    0.0000 C   0  0  0  0  0  0  0  0  0  0  0  0
    4.5981    1.7315    0.0000 C   0  0  0  0  0  0  0  0  0  0  0  0
    6.3301    1.7315    0.0000 C   0  0  0  0  0  0  0  0  0  0  0  0
    4.5981   -2.2685    0.0000 C   0  0  0  0  0  0  0  0  0  0  0  0
    3.7320   -2.7685    0.0000 C   0  0  0  0  0  0  0  0  0  0  0  0
    3.7320   -3.7685    0.0000 C   0  0  0  0  0  0  0  0  0  0  0  0
    2.8660   -2.2685    0.0000 C   0  0  0  0  0  0  0  0  0  0  0  0
    2.8660   -4.2685    0.0000 C   0  0  0  0  0  0  0  0  0  0  0  0
    2.0000   -2.7685    0.0000 C   0  0  0  0  0  0  0  0  0  0  0  0
    2.0000   -3.7685    0.0000 C   0  0  0  0  0  0  0  0  0  0  0  0
    5.6762   -1.3511    0.0000 H   0  0  0  0  0  0  0  0  0  0  0  0
    6.0747   -0.6608    0.0000 H   0  0  0  0  0  0  0  0  0  0  0  0
    5.2520    3.8141    0.0000 H   0  0  0  0  0  0  0  0  0  0  0  0
    4.8535    3.1239    0.0000 H   0  0  0  0  0  0  0  0  0  0  0  0
    4.0611    0.4215    0.0000 H   0  0  0  0  0  0  0  0  0  0  0  0
    6.8671    0.4215    0.0000 H   0  0  0  0  0  0  0  0  0  0  0  0
    4.0611    2.0415    0.0000 H   0  0  0  0  0  0  0  0  0  0  0  0
    6.8671    2.0415    0.0000 H   0  0  0  0  0  0  0  0  0  0  0  0
    4.8101   -2.8511    0.0000 H   0  0  0  0  0  0  0  0  0  0  0  0
    5.2087   -2.1608    0.0000 H   0  0  0  0  0  0  0  0  0  0  0  0
    6.8671    4.0415    0.0000 H   0  0  0  0  0  0  0  0  0  0  0  0
    6.0201    4.2685    0.0000 H   0  0  0  0  0  0  0  0  0  0  0  0
    6.6401    3.1946    0.0000 H   0  0  0  0  0  0  0  0  0  0  0  0
    4.2690   -4.0785    0.0000 H   0  0  0  0  0  0  0  0  0  0  0  0
    2.8660   -1.6485    0.0000 H   0  0  0  0  0  0  0  0  0  0  0  0
    2.8660   -4.8885    0.0000 H   0  0  0  0  0  0  0  0  0  0  0  0
    1.4631   -2.4585    0.0000 H   0  0  0  0  0  0  0  0  0  0  0  0
    1.4631   -4.0785    0.0000 H   0  0  0  0  0  0  0  0  0  0  0  0
  1  5  1  0  0  0  0
  1 11  1  0  0  0  0
  2  6  1  0  0  0  0
  2 28  1  0  0  0  0
  2 29  1  0  0  0  0
  2 30  1  0  0  0  0
  3  5  1  0  0  0  0
  3  7  2  0  0  0  0
  3  8  1  0  0  0  0
  4  6  1  0  0  0  0
  4  9  2  0  0  0  0
  4 10  1  0  0  0  0
  5 18  1  0  0  0  0
  5 19  1  0  0  0  0
  6 20  1  0  0  0  0
  6 21  1  0  0  0  0
  7  9  1  0  0  0  0
  7 22  1  0  0  0  0
  8 10  2  0  0  0  0
  8 23  1  0  0  0  0
  9 24  1  0  0  0  0
 10 25  1  0  0  0  0
 11 12  1  0  0  0  0
 11 26  1  0  0  0  0
 11 27  1  0  0  0  0
 12 13  2  0  0  0  0
 12 14  1  0  0  0  0
 13 15  1  0  0  0  0
 13 31  1  0  0  0  0
 14 16  2  0  0  0  0
 14 32  1  0  0  0  0
 15 17  2  0  0  0  0
 15 33  1  0  0  0  0
 16 17  1  0  0  0  0
 16 34  1  0  0  0  0
 17 35  1  0  0  0  0
M  CHG  1   2   1
M  END
> <PUBCHEM_COMPOUND_CID>
30115116

> <PUBCHEM_COMPOUND_CANONICALIZED>
1

> <PUBCHEM_CACTVS_COMPLEXITY>
193

> <PUBCHEM_CACTVS_HBOND_ACCEPTOR>
1

> <PUBCHEM_CACTVS_HBOND_DONOR>
1

> <PUBCHEM_CACTVS_ROTATABLE_BOND>
5

> <PUBCHEM_CACTVS_SUBSKEYS>
AAADceByIAAAAAAAAAAAAAAAAAAAAAAAAAAwYAAAAAAAAAABQAAAHgAQAAAADADhmAYwAIBABACAAiBCAACCAAAgAAAIiIAADIgIJiKAsRmCMABkwAEIqAeQwDAOQAAAAAAAAACAAAAAAAAAAAAAAAAAAA==

> <PUBCHEM_IUPAC_OPENEYE_NAME>
[4-(benzyloxymethyl)phenyl]methylammonium

> <PUBCHEM_IUPAC_CAS_NAME>
[4-(phenylmethoxymethyl)phenyl]methylammonium

> <PUBCHEM_IUPAC_NAME>
[4-(phenylmethoxymethyl)phenyl]methylazanium

> <PUBCHEM_IUPAC_SYSTEMATIC_NAME>
[4-(phenylmethoxymethyl)phenyl]methylazanium

> <PUBCHEM_IUPAC_TRADITIONAL_NAME>
[4-(benzoxymethyl)benzyl]ammonium

> <PUBCHEM_IUPAC_INCHI>
InChI=1S/C15H17NO/c16-10-13-6-8-15(9-7-13)12-17-11-14-4-2-1-3-5-14/h1-9H,10-12,16H2/p+1

> <PUBCHEM_IUPAC_INCHIKEY>
JIOYDYXYKZIUOM-UHFFFAOYSA-O

> <PUBCHEM_XLOGP3>
2.2

> <PUBCHEM_EXACT_MASS>
228.138839

> <PUBCHEM_MOLECULAR_FORMULA>
C15H18NO+

> <PUBCHEM_MOLECULAR_WEIGHT>
228.30952

> <PUBCHEM_OPENEYE_CAN_SMILES>
C1=CC=C(C=C1)COCC2=CC=C(C=C2)C[NH3+]

> <PUBCHEM_OPENEYE_ISO_SMILES>
C1=CC=C(C=C1)COCC2=CC=C(C=C2)C[NH3+]

> <PUBCHEM_CACTVS_TPSA>
36.9

> <PUBCHEM_MONOISOTOPIC_WEIGHT>
228.138839

> <PUBCHEM_TOTAL_CHARGE>
1

> <PUBCHEM_HEAVY_ATOM_COUNT>
17

> <PUBCHEM_ATOM_DEF_STEREO_COUNT>
0

> <PUBCHEM_ATOM_UDEF_STEREO_COUNT>
0

> <PUBCHEM_BOND_DEF_STEREO_COUNT>
0

> <PUBCHEM_BOND_UDEF_STEREO_COUNT>
0

> <PUBCHEM_ISOTOPIC_ATOM_COUNT>
0

> <PUBCHEM_COMPONENT_COUNT>
1

> <PUBCHEM_CACTVS_TAUTO_COUNT>
1

> <PUBCHEM_COORDINATE_TYPE>
1
5
255

> <PUBCHEM_BONDANNOTATIONS>
12  13  8
12  14  8
13  15  8
14  16  8
15  17  8
16  17  8
3  7  8
3  8  8
4  10  8
4  9  8
7  9  8
8  10  8

$$$$
30122060
  -OEChem-06121304422D

 43 43  0     0  0  0  0  0  0999 V2000
    2.5369    0.7685    0.0000 O   0  0  0  0  0  0  0  0  0  0  0  0
    5.1350    3.2685    0.0000 N   0  3  0  0  0  0  0  0  0  0  0  0
    4.2690    0.7685    0.0000 N   0  0  0  0  0  0  0  0  0  0  0  0
    2.5369   -4.2315    0.0000 N   0  3  0  0  0  0  0  0  0  0  0  0
    5.1350    2.2685    0.0000 C   0  0  0  0  0  0  0  0  0  0  0  0
    5.1350    4.2685    0.0000 C   0  0  0  0  0  0  0  0  0  0  0  0
    6.1350    3.2685    0.0000 C   0  0  0  0  0  0  0  0  0  0  0  0
    4.2690    1.7685    0.0000 C   0  0  0  0  0  0  0  0  0  0  0  0
    6.6350    2.4024    0.0000 C   0  0  0  0  0  0  0  0  0  0  0  0
    6.0010    4.7685    0.0000 C   0  0  0  0  0  0  0  0  0  0  0  0
    3.4030    0.2685    0.0000 C   0  0  0  0  0  0  0  0  0  0  0  0
    3.4030   -0.7315    0.0000 C   0  0  0  0  0  0  0  0  0  0  0  0
    3.4030   -2.7315    0.0000 C   0  0  0  0  0  0  0  0  0  0  0  0
    4.2690   -1.2315    0.0000 C   0  0  0  0  0  0  0  0  0  0  0  0
    2.5369   -1.2315    0.0000 C   0  0  0  0  0  0  0  0  0  0  0  0
    3.4030   -3.7315    0.0000 C   0  0  0  0  0  0  0  0  0  0  0  0
    4.2690   -2.2315    0.0000 C   0  0  0  0  0  0  0  0  0  0  0  0
    2.5369   -2.2315    0.0000 C   0  0  0  0  0  0  0  0  0  0  0  0
    4.5150    3.2685    0.0000 H   0  0  0  0  0  0  0  0  0  0  0  0
    5.3471    1.6859    0.0000 H   0  0  0  0  0  0  0  0  0  0  0  0
    5.7456    2.3761    0.0000 H   0  0  0  0  0  0  0  0  0  0  0  0
    4.9230    4.8511    0.0000 H   0  0  0  0  0  0  0  0  0  0  0  0
    4.5244    4.1608    0.0000 H   0  0  0  0  0  0  0  0  0  0  0  0
    6.7176    3.4805    0.0000 H   0  0  0  0  0  0  0  0  0  0  0  0
    6.0274    3.8790    0.0000 H   0  0  0  0  0  0  0  0  0  0  0  0
    4.0569    2.3511    0.0000 H   0  0  0  0  0  0  0  0  0  0  0  0
    3.6584    1.6608    0.0000 H   0  0  0  0  0  0  0  0  0  0  0  0
    6.3110    4.2315    0.0000 H   0  0  0  0  0  0  0  0  0  0  0  0
    6.0981    2.0924    0.0000 H   0  0  0  0  0  0  0  0  0  0  0  0
    6.9450    1.8655    0.0000 H   0  0  0  0  0  0  0  0  0  0  0  0
    7.1720    2.7124    0.0000 H   0  0  0  0  0  0  0  0  0  0  0  0
    6.5380    5.0785    0.0000 H   0  0  0  0  0  0  0  0  0  0  0  0
    5.6910    5.3054    0.0000 H   0  0  0  0  0  0  0  0  0  0  0  0
    4.8059    0.4585    0.0000 H   0  0  0  0  0  0  0  0  0  0  0  0
    4.8059   -0.9215    0.0000 H   0  0  0  0  0  0  0  0  0  0  0  0
    2.0000   -0.9215    0.0000 H   0  0  0  0  0  0  0  0  0  0  0  0
    3.6150   -4.3141    0.0000 H   0  0  0  0  0  0  0  0  0  0  0  0
    4.0135   -3.6239    0.0000 H   0  0  0  0  0  0  0  0  0  0  0  0
    4.8059   -2.5415    0.0000 H   0  0  0  0  0  0  0  0  0  0  0  0
    2.0000   -2.5415    0.0000 H   0  0  0  0  0  0  0  0  0  0  0  0
    2.0000   -4.5415    0.0000 H   0  0  0  0  0  0  0  0  0  0  0  0
    2.8469   -4.7685    0.0000 H   0  0  0  0  0  0  0  0  0  0  0  0
    2.2269   -3.6946    0.0000 H   0  0  0  0  0  0  0  0  0  0  0  0
  1 11  2  0  0  0  0
  2  5  1  0  0  0  0
  2  6  1  0  0  0  0
  2  7  1  0  0  0  0
  2 19  1  0  0  0  0
  3  8  1  0  0  0  0
  3 11  1  0  0  0  0
  3 34  1  0  0  0  0
  4 16  1  0  0  0  0
  4 41  1  0  0  0  0
  4 42  1  0  0  0  0
  4 43  1  0  0  0  0
  5  8  1  0  0  0  0
  5 20  1  0  0  0  0
  5 21  1  0  0  0  0
  6 10  1  0  0  0  0
  6 22  1  0  0  0  0
  6 23  1  0  0  0  0
  7  9  1  0  0  0  0
  7 24  1  0  0  0  0
  7 25  1  0  0  0  0
  8 26  1  0  0  0  0
  8 27  1  0  0  0  0
  9 29  1  0  0  0  0
  9 30  1  0  0  0  0
  9 31  1  0  0  0  0
 10 28  1  0  0  0  0
 10 32  1  0  0  0  0
 10 33  1  0  0  0  0
 11 12  1  0  0  0  0
 12 14  2  0  0  0  0
 12 15  1  0  0  0  0
 13 16  1  0  0  0  0
 13 17  2  0  0  0  0
 13 18  1  0  0  0  0
 14 17  1  0  0  0  0
 14 35  1  0  0  0  0
 15 18  2  0  0  0  0
 15 36  1  0  0  0  0
 16 37  1  0  0  0  0
 16 38  1  0  0  0  0
 17 39  1  0  0  0  0
 18 40  1  0  0  0  0
M  CHG  2   2   1   4   1
M  END
> <PUBCHEM_COMPOUND_CID>
30122060

> <PUBCHEM_COMPOUND_CANONICALIZED>
1

> <PUBCHEM_CACTVS_COMPLEXITY>
233

> <PUBCHEM_CACTVS_HBOND_ACCEPTOR>
1

> <PUBCHEM_CACTVS_HBOND_DONOR>
3

> <PUBCHEM_CACTVS_ROTATABLE_BOND>
7

> <PUBCHEM_CACTVS_SUBSKEYS>
AAADceBzIAAAAAAAAAAAAAAAAAAAAAAAAAAwAAAAAAAAAAABAAAAHgAQAAAADADBmAQyAIPAAACIAiFSEACCAAAkAAAIiIEIBMgIYDKAlRGUIQhglgCIiYcYiACOQAAAAAAAAACAAAAAAAAAAAAAAAAAAA==

> <PUBCHEM_IUPAC_OPENEYE_NAME>
2-[[4-(azaniumylmethyl)benzoyl]amino]ethyl-diethyl-ammonium

> <PUBCHEM_IUPAC_CAS_NAME>
2-[[[4-(ammoniomethyl)phenyl]-oxomethyl]amino]ethyl-diethylammonium

> <PUBCHEM_IUPAC_NAME>
2-[[4-(azaniumylmethyl)benzoyl]amino]ethyl-diethylazanium

> <PUBCHEM_IUPAC_SYSTEMATIC_NAME>
2-[[4-(azaniumylmethyl)phenyl]carbonylamino]ethyl-diethyl-azanium

> <PUBCHEM_IUPAC_TRADITIONAL_NAME>
2-[[4-(ammoniomethyl)benzoyl]amino]ethyl-diethyl-ammonium

> <PUBCHEM_IUPAC_INCHI>
InChI=1S/C14H23N3O/c1-3-17(4-2)10-9-16-14(18)13-7-5-12(11-15)6-8-13/h5-8H,3-4,9-11,15H2,1-2H3,(H,16,18)/p+2

> <PUBCHEM_IUPAC_INCHIKEY>
YPYPDOCJJLQRSL-UHFFFAOYSA-P

> <PUBCHEM_XLOGP3>
0.8

> <PUBCHEM_EXACT_MASS>
251.199762

> <PUBCHEM_MOLECULAR_FORMULA>
C14H25N3O+2

> <PUBCHEM_MOLECULAR_WEIGHT>
251.3678

> <PUBCHEM_OPENEYE_CAN_SMILES>
CC[NH+](CC)CCNC(=O)C1=CC=C(C=C1)C[NH3+]

> <PUBCHEM_OPENEYE_ISO_SMILES>
CC[NH+](CC)CCNC(=O)C1=CC=C(C=C1)C[NH3+]

> <PUBCHEM_CACTVS_TPSA>
61.2

> <PUBCHEM_MONOISOTOPIC_WEIGHT>
251.199762

> <PUBCHEM_TOTAL_CHARGE>
2

> <PUBCHEM_HEAVY_ATOM_COUNT>
18

> <PUBCHEM_ATOM_DEF_STEREO_COUNT>
0

> <PUBCHEM_ATOM_UDEF_STEREO_COUNT>
0

> <PUBCHEM_BOND_DEF_STEREO_COUNT>
0

> <PUBCHEM_BOND_UDEF_STEREO_COUNT>
0

> <PUBCHEM_ISOTOPIC_ATOM_COUNT>
0

> <PUBCHEM_COMPONENT_COUNT>
1

> <PUBCHEM_CACTVS_TAUTO_COUNT>
2

> <PUBCHEM_COORDINATE_TYPE>
1
5
255

> <PUBCHEM_BONDANNOTATIONS>
12  14  8
12  15  8
13  17  8
13  18  8
14  17  8
15  18  8

$$$$
