47907837
  -OEChem-03061303132D

 37 40  0     1  0  0  0  0  0999 V2000
    4.3211    0.7252    0.0000 O   0  0  0  0  0  0  0  0  0  0  0  0
    5.9674    0.1871    0.0000 N   0  0  0  0  0  0  0  0  0  0  0  0
    4.6783   -2.5791    0.0000 N   0  0  0  0  0  0  0  0  0  0  0  0
    7.0224    1.8055    0.0000 C   0  0  3  0  0  0  0  0  0  0  0  0
    6.2781    1.1376    0.0000 C   0  0  3  0  0  0  0  0  0  0  0  0
    6.0719    2.1161    0.0000 C   0  0  0  0  0  0  0  0  0  0  0  0
    8.0009    2.0117    0.0000 C   0  0  0  0  0  0  0  0  0  0  0  0
    8.6688    1.2674    0.0000 C   0  0  0  0  0  0  0  0  0  0  0  0
    8.3116    2.9622    0.0000 C   0  0  0  0  0  0  0  0  0  0  0  0
    4.9889   -0.0191    0.0000 C   0  0  0  0  0  0  0  0  0  0  0  0
    4.6783   -0.9696    0.0000 C   0  0  0  0  0  0  0  0  0  0  0  0
    9.6473    1.4736    0.0000 C   0  0  0  0  0  0  0  0  0  0  0  0
    9.2901    3.1684    0.0000 C   0  0  0  0  0  0  0  0  0  0  0  0
    3.7320   -1.2744    0.0000 C   0  0  0  0  0  0  0  0  0  0  0  0
    9.9579    2.4241    0.0000 C   0  0  0  0  0  0  0  0  0  0  0  0
    5.2619   -1.7744    0.0000 C   0  0  0  0  0  0  0  0  0  0  0  0
    3.7320   -2.2744    0.0000 C   0  0  0  0  0  0  0  0  0  0  0  0
    2.8660   -0.7744    0.0000 C   0  0  0  0  0  0  0  0  0  0  0  0
    2.8660   -2.7744    0.0000 C   0  0  0  0  0  0  0  0  0  0  0  0
    2.0000   -1.2744    0.0000 C   0  0  0  0  0  0  0  0  0  0  0  0
    2.0000   -2.2744    0.0000 C   0  0  0  0  0  0  0  0  0  0  0  0
    7.0559    2.4246    0.0000 H   0  0  0  0  0  0  0  0  0  0  0  0
    5.6590    1.1711    0.0000 H   0  0  0  0  0  0  0  0  0  0  0  0
    6.1592    2.7299    0.0000 H   0  0  0  0  0  0  0  0  0  0  0  0
    5.4522    2.0956    0.0000 H   0  0  0  0  0  0  0  0  0  0  0  0
    6.3815   -0.2744    0.0000 H   0  0  0  0  0  0  0  0  0  0  0  0
    8.4761    0.6781    0.0000 H   0  0  0  0  0  0  0  0  0  0  0  0
    7.8975    3.4237    0.0000 H   0  0  0  0  0  0  0  0  0  0  0  0
   10.0613    1.0121    0.0000 H   0  0  0  0  0  0  0  0  0  0  0  0
    9.4827    3.7578    0.0000 H   0  0  0  0  0  0  0  0  0  0  0  0
   10.5646    2.5520    0.0000 H   0  0  0  0  0  0  0  0  0  0  0  0
    5.8819   -1.7744    0.0000 H   0  0  0  0  0  0  0  0  0  0  0  0
    4.8709   -3.1684    0.0000 H   0  0  0  0  0  0  0  0  0  0  0  0
    2.8660   -0.1544    0.0000 H   0  0  0  0  0  0  0  0  0  0  0  0
    2.8660   -3.3944    0.0000 H   0  0  0  0  0  0  0  0  0  0  0  0
    1.4631   -0.9644    0.0000 H   0  0  0  0  0  0  0  0  0  0  0  0
    1.4631   -2.5844    0.0000 H   0  0  0  0  0  0  0  0  0  0  0  0
  1 10  2  0  0  0  0
  2  5  1  0  0  0  0
  2 10  1  0  0  0  0
  2 26  1  0  0  0  0
  3 16  1  0  0  0  0
  3 17  1  0  0  0  0
  3 33  1  0  0  0  0
  4  5  1  0  0  0  0
  4  6  1  0  0  0  0
  4  7  1  0  0  0  0
  4 22  1  0  0  0  0
  5  6  1  0  0  0  0
  5 23  1  0  0  0  0
  6 24  1  0  0  0  0
  6 25  1  0  0  0  0
  7  8  2  0  0  0  0
  7  9  1  0  0  0  0
  8 12  1  0  0  0  0
  8 27  1  0  0  0  0
  9 13  2  0  0  0  0
  9 28  1  0  0  0  0
 10 11  1  0  0  0  0
 11 14  1  0  0  0  0
 11 16  2  0  0  0  0
 12 15  2  0  0  0  0
 12 29  1  0  0  0  0
 13 15  1  0  0  0  0
 13 30  1  0  0  0  0
 14 17  1  0  0  0  0
 14 18  2  0  0  0  0
 15 31  1  0  0  0  0
 16 32  1  0  0  0  0
 17 19  2  0  0  0  0
 18 20  1  0  0  0  0
 18 34  1  0  0  0  0
 19 21  1  0  0  0  0
 19 35  1  0  0  0  0
 20 21  2  0  0  0  0
 20 36  1  0  0  0  0
 21 37  1  0  0  0  0
M  END
> <PUBCHEM_COMPOUND_CID>
47907837

> <PUBCHEM_COMPOUND_CANONICALIZED>
1

> <PUBCHEM_CACTVS_COMPLEXITY>
391

> <PUBCHEM_CACTVS_HBOND_ACCEPTOR>
1

> <PUBCHEM_CACTVS_HBOND_DONOR>
2

> <PUBCHEM_CACTVS_ROTATABLE_BOND>
3

> <PUBCHEM_CACTVS_SUBSKEYS>
AAADceB7IAAAAAAAAAAAAAAAGAAAAWAAAAAwYAAAAAAAAFgB9AAAHgAQAAAADSjBngQ8wPLJkACoAzV3VACCgCA1AiAI2aE4ZNgIIPrA1ZGEIYhglgDIyccciMCOgAAAAAACAAAAAAAAAAQAAAAAAAAAAA==

> <PUBCHEM_IUPAC_OPENEYE_NAME>
N-(2-phenylcyclopropyl)-1H-indole-3-carboxamide

> <PUBCHEM_IUPAC_CAS_NAME>
N-(2-phenylcyclopropyl)-1H-indole-3-carboxamide

> <PUBCHEM_IUPAC_NAME>
N-(2-phenylcyclopropyl)-1H-indole-3-carboxamide

> <PUBCHEM_IUPAC_SYSTEMATIC_NAME>
N-(2-phenylcyclopropyl)-1H-indole-3-carboxamide

> <PUBCHEM_IUPAC_TRADITIONAL_NAME>
N-(2-phenylcyclopropyl)-1H-indole-3-carboxamide

> <PUBCHEM_IUPAC_INCHI>
InChI=1S/C18H16N2O/c21-18(15-11-19-16-9-5-4-8-13(15)16)20-17-10-14(17)12-6-2-1-3-7-12/h1-9,11,14,17,19H,10H2,(H,20,21)

> <PUBCHEM_IUPAC_INCHIKEY>
WHLCQFCBLZJLLH-UHFFFAOYSA-N

> <PUBCHEM_XLOGP3>
3.7

> <PUBCHEM_EXACT_MASS>
276.126263

> <PUBCHEM_MOLECULAR_FORMULA>
C18H16N2O

> <PUBCHEM_MOLECULAR_WEIGHT>
276.33244

> <PUBCHEM_OPENEYE_CAN_SMILES>
C1C(C1NC(=O)C2=CNC3=CC=CC=C32)C4=CC=CC=C4

> <PUBCHEM_OPENEYE_ISO_SMILES>
C1C(C1NC(=O)C2=CNC3=CC=CC=C32)C4=CC=CC=C4

> <PUBCHEM_CACTVS_TPSA>
44.9

> <PUBCHEM_MONOISOTOPIC_WEIGHT>
276.126263

> <PUBCHEM_TOTAL_CHARGE>
0

> <PUBCHEM_HEAVY_ATOM_COUNT>
21

> <PUBCHEM_ATOM_DEF_STEREO_COUNT>
0

> <PUBCHEM_ATOM_UDEF_STEREO_COUNT>
2

> <PUBCHEM_BOND_DEF_STEREO_COUNT>
0

> <PUBCHEM_BOND_UDEF_STEREO_COUNT>
0

> <PUBCHEM_ISOTOPIC_ATOM_COUNT>
0

> <PUBCHEM_COMPONENT_COUNT>
1

> <PUBCHEM_CACTVS_TAUTO_COUNT>
5

> <PUBCHEM_COORDINATE_TYPE>
1
5
255

> <PUBCHEM_BONDANNOTATIONS>
11  14  8
11  16  8
12  15  8
13  15  8
14  17  8
14  18  8
17  19  8
18  20  8
19  21  8
5  2  3
20  21  8
3  16  8
3  17  8
4  7  3
7  8  8
7  9  8
8  12  8
9  13  8

$$$$
