56754834
  -OEChem-11301218112D

 38 40  0     0  0  0  0  0  0999 V2000
    6.2781    1.3440    0.0000 N   0  0  0  0  0  0  0  0  0  0  0  0
    4.6783   -2.3727    0.0000 N   0  0  0  0  0  0  0  0  0  0  0  0
    7.2314    2.6514    0.0000 N   0  0  0  0  0  0  0  0  0  0  0  0
    5.9674    0.3935    0.0000 C   0  0  0  0  0  0  0  0  0  0  0  0
    4.9889    0.1873    0.0000 C   0  0  0  0  0  0  0  0  0  0  0  0
    4.6783   -0.7633    0.0000 C   0  0  0  0  0  0  0  0  0  0  0  0
    8.0377    1.0622    0.0000 C   0  0  0  0  0  0  0  0  0  0  0  0
    7.2297    1.6514    0.0000 C   0  0  0  0  0  0  0  0  0  0  0  0
    3.7320   -1.0680    0.0000 C   0  0  0  0  0  0  0  0  0  0  0  0
    3.7320   -2.0680    0.0000 C   0  0  0  0  0  0  0  0  0  0  0  0
    5.2619   -1.5680    0.0000 C   0  0  0  0  0  0  0  0  0  0  0  0
    5.6917    2.1540    0.0000 C   0  0  0  0  0  0  0  0  0  0  0  0
    8.9519    1.4674    0.0000 C   0  0  0  0  0  0  0  0  0  0  0  0
    7.9314    0.0679    0.0000 C   0  0  0  0  0  0  0  0  0  0  0  0
    6.2809    2.9620    0.0000 C   0  0  0  0  0  0  0  0  0  0  0  0
    2.8660   -0.5680    0.0000 C   0  0  0  0  0  0  0  0  0  0  0  0
    2.8660   -2.5680    0.0000 C   0  0  0  0  0  0  0  0  0  0  0  0
    2.0000   -1.0680    0.0000 C   0  0  0  0  0  0  0  0  0  0  0  0
    2.0000   -2.0680    0.0000 C   0  0  0  0  0  0  0  0  0  0  0  0
    5.9880   -0.2262    0.0000 H   0  0  0  0  0  0  0  0  0  0  0  0
    6.5812    0.3061    0.0000 H   0  0  0  0  0  0  0  0  0  0  0  0
    4.9684    0.8069    0.0000 H   0  0  0  0  0  0  0  0  0  0  0  0
    4.3751    0.2746    0.0000 H   0  0  0  0  0  0  0  0  0  0  0  0
    7.4709    0.8110    0.0000 H   0  0  0  0  0  0  0  0  0  0  0  0
    5.8819   -1.5680    0.0000 H   0  0  0  0  0  0  0  0  0  0  0  0
    5.0717    2.1551    0.0000 H   0  0  0  0  0  0  0  0  0  0  0  0
    7.3150    0.1337    0.0000 H   0  0  0  0  0  0  0  0  0  0  0  0
    9.2031    0.9005    0.0000 H   0  0  0  0  0  0  0  0  0  0  0  0
    9.5188    1.7186    0.0000 H   0  0  0  0  0  0  0  0  0  0  0  0
    8.7007    2.0342    0.0000 H   0  0  0  0  0  0  0  0  0  0  0  0
    7.8656   -0.5486    0.0000 H   0  0  0  0  0  0  0  0  0  0  0  0
    8.5479    0.0020    0.0000 H   0  0  0  0  0  0  0  0  0  0  0  0
    4.8709   -2.9620    0.0000 H   0  0  0  0  0  0  0  0  0  0  0  0
    6.0903    3.5520    0.0000 H   0  0  0  0  0  0  0  0  0  0  0  0
    2.8660    0.0520    0.0000 H   0  0  0  0  0  0  0  0  0  0  0  0
    2.8660   -3.1880    0.0000 H   0  0  0  0  0  0  0  0  0  0  0  0
    1.4631   -0.7580    0.0000 H   0  0  0  0  0  0  0  0  0  0  0  0
    1.4631   -2.3780    0.0000 H   0  0  0  0  0  0  0  0  0  0  0  0
  1  4  1  0  0  0  0
  1  8  1  0  0  0  0
  1 12  1  0  0  0  0
  2 10  1  0  0  0  0
  2 11  1  0  0  0  0
  2 33  1  0  0  0  0
  3  8  2  0  0  0  0
  3 15  1  0  0  0  0
  4  5  1  0  0  0  0
  4 20  1  0  0  0  0
  4 21  1  0  0  0  0
  5  6  1  0  0  0  0
  5 22  1  0  0  0  0
  5 23  1  0  0  0  0
  6  9  1  0  0  0  0
  6 11  2  0  0  0  0
  7  8  1  0  0  0  0
  7 13  1  0  0  0  0
  7 14  1  0  0  0  0
  7 24  1  0  0  0  0
  9 10  1  0  0  0  0
  9 16  2  0  0  0  0
 10 17  2  0  0  0  0
 11 25  1  0  0  0  0
 12 15  2  0  0  0  0
 12 26  1  0  0  0  0
 13 28  1  0  0  0  0
 13 29  1  0  0  0  0
 13 30  1  0  0  0  0
 14 27  1  0  0  0  0
 14 31  1  0  0  0  0
 14 32  1  0  0  0  0
 15 34  1  0  0  0  0
 16 18  1  0  0  0  0
 16 35  1  0  0  0  0
 17 19  1  0  0  0  0
 17 36  1  0  0  0  0
 18 19  2  0  0  0  0
 18 37  1  0  0  0  0
 19 38  1  0  0  0  0
M  END
> <PUBCHEM_COMPOUND_CID>
56754834

> <PUBCHEM_COMPOUND_CANONICALIZED>
1

> <PUBCHEM_CACTVS_COMPLEXITY>
292

> <PUBCHEM_CACTVS_HBOND_ACCEPTOR>
1

> <PUBCHEM_CACTVS_HBOND_DONOR>
1

> <PUBCHEM_CACTVS_ROTATABLE_BOND>
4

> <PUBCHEM_CACTVS_SUBSKEYS>
AAADceB7AAAAAAAAAAAAAAAAAAAAAWLAAAAwAAAAAAAAAFgB/AAAHAAQAAAADQjBHwQ/0PfNkACgAzZnZACCgC0xEqAJ2aA4dJiIaOLAmZGUIAhokALIyCcQgMAOgAAAAAACAAAAAAAAAAQAAAAAAAAAAA==

> <PUBCHEM_IUPAC_OPENEYE_NAME>
3-[2-(2-isopropylimidazol-1-yl)ethyl]-1H-indole

> <PUBCHEM_IUPAC_CAS_NAME>
3-[2-(2-propan-2-yl-1-imidazolyl)ethyl]-1H-indole

> <PUBCHEM_IUPAC_NAME>
3-[2-(2-propan-2-ylimidazol-1-yl)ethyl]-1H-indole

> <PUBCHEM_IUPAC_SYSTEMATIC_NAME>
3-[2-(2-propan-2-ylimidazol-1-yl)ethyl]-1H-indole

> <PUBCHEM_IUPAC_TRADITIONAL_NAME>
3-[2-(2-isopropylimidazol-1-yl)ethyl]-1H-indole

> <PUBCHEM_IUPAC_INCHI>
InChI=1S/C16H19N3/c1-12(2)16-17-8-10-19(16)9-7-13-11-18-15-6-4-3-5-14(13)15/h3-6,8,10-12,18H,7,9H2,1-2H3

> <PUBCHEM_IUPAC_INCHIKEY>
PDOZZPHTWPHADN-UHFFFAOYSA-N

> <PUBCHEM_XLOGP3>
3.1

> <PUBCHEM_EXACT_MASS>
253.157898

> <PUBCHEM_MOLECULAR_FORMULA>
C16H19N3

> <PUBCHEM_MOLECULAR_WEIGHT>
253.34216

> <PUBCHEM_OPENEYE_CAN_SMILES>
CC(C)C1=NC=CN1CCC2=CNC3=CC=CC=C32

> <PUBCHEM_OPENEYE_ISO_SMILES>
CC(C)C1=NC=CN1CCC2=CNC3=CC=CC=C32

> <PUBCHEM_CACTVS_TPSA>
33.6

> <PUBCHEM_MONOISOTOPIC_WEIGHT>
253.157898

> <PUBCHEM_TOTAL_CHARGE>
0

> <PUBCHEM_HEAVY_ATOM_COUNT>
19

> <PUBCHEM_ATOM_DEF_STEREO_COUNT>
0

> <PUBCHEM_ATOM_UDEF_STEREO_COUNT>
0

> <PUBCHEM_BOND_DEF_STEREO_COUNT>
0

> <PUBCHEM_BOND_UDEF_STEREO_COUNT>
0

> <PUBCHEM_ISOTOPIC_ATOM_COUNT>
0

> <PUBCHEM_COMPONENT_COUNT>
1

> <PUBCHEM_CACTVS_TAUTO_COUNT>
2

> <PUBCHEM_COORDINATE_TYPE>
1
5
255

> <PUBCHEM_BONDANNOTATIONS>
1  12  8
1  8  8
10  17  8
12  15  8
16  18  8
17  19  8
18  19  8
2  10  8
2  11  8
3  15  8
3  8  8
6  11  8
6  9  8
9  10  8
9  16  8

$$$$
56764436
  -OEChem-11301218112D

 50 53  0     1  0  0  0  0  0999 V2000
    4.5981   -1.0000    0.0000 O   0  0  0  0  0  0  0  0  0  0  0  0
    7.1962   -0.5000    0.0000 N   0  0  0  0  0  0  0  0  0  0  0  0
    5.4641    0.5000    0.0000 N   0  0  0  0  0  0  0  0  0  0  0  0
    6.3301   -1.0000    0.0000 C   0  0  3  0  0  0  0  0  0  0  0  0
    4.5981    1.0000    0.0000 C   0  0  0  0  0  0  0  0  0  0  0  0
    5.4641   -0.5000    0.0000 C   0  0  0  0  0  0  0  0  0  0  0  0
    6.3301   -2.0000    0.0000 C   0  0  0  0  0  0  0  0  0  0  0  0
    4.5981    2.0000    0.0000 C   0  0  0  0  0  0  0  0  0  0  0  0
    3.7320    0.5000    0.0000 C   0  0  0  0  0  0  0  0  0  0  0  0
    8.1097   -0.9067    0.0000 C   0  0  0  0  0  0  0  0  0  0  0  0
    7.3007    0.4945    0.0000 C   0  0  0  0  0  0  0  0  0  0  0  0
    7.1962   -2.5000    0.0000 C   0  0  0  0  0  0  0  0  0  0  0  0
    5.4641   -2.5000    0.0000 C   0  0  0  0  0  0  0  0  0  0  0  0
    3.7320    2.5000    0.0000 C   0  0  0  0  0  0  0  0  0  0  0  0
    3.7320   -0.5000    0.0000 C   0  0  0  0  0  0  0  0  0  0  0  0
    5.4641    2.5000    0.0000 C   0  0  0  0  0  0  0  0  0  0  0  0
    2.8660    1.0000    0.0000 C   0  0  0  0  0  0  0  0  0  0  0  0
    8.7788   -0.1636    0.0000 C   0  0  0  0  0  0  0  0  0  0  0  0
    8.2788    0.7024    0.0000 C   0  0  0  0  0  0  0  0  0  0  0  0
    7.1962   -3.5000    0.0000 C   0  0  0  0  0  0  0  0  0  0  0  0
    5.4641   -3.5000    0.0000 C   0  0  0  0  0  0  0  0  0  0  0  0
    3.7320    3.5000    0.0000 C   0  0  0  0  0  0  0  0  0  0  0  0
    2.8660   -1.0000    0.0000 C   0  0  0  0  0  0  0  0  0  0  0  0
    5.4641    3.5000    0.0000 C   0  0  0  0  0  0  0  0  0  0  0  0
    2.0000    0.5000    0.0000 C   0  0  0  0  0  0  0  0  0  0  0  0
    6.3301   -4.0000    0.0000 C   0  0  0  0  0  0  0  0  0  0  0  0
    4.5981    4.0000    0.0000 C   0  0  0  0  0  0  0  0  0  0  0  0
    2.0000   -0.5000    0.0000 C   0  0  0  0  0  0  0  0  0  0  0  0
    6.3301   -0.3800    0.0000 H   0  0  0  0  0  0  0  0  0  0  0  0
    4.5981    0.3800    0.0000 H   0  0  0  0  0  0  0  0  0  0  0  0
    6.0010    0.8100    0.0000 H   0  0  0  0  0  0  0  0  0  0  0  0
    8.2386   -1.5132    0.0000 H   0  0  0  0  0  0  0  0  0  0  0  0
    6.8399    0.9094    0.0000 H   0  0  0  0  0  0  0  0  0  0  0  0
    7.7331   -2.1900    0.0000 H   0  0  0  0  0  0  0  0  0  0  0  0
    4.9272   -2.1900    0.0000 H   0  0  0  0  0  0  0  0  0  0  0  0
    3.1951    2.1900    0.0000 H   0  0  0  0  0  0  0  0  0  0  0  0
    4.2690   -0.8100    0.0000 H   0  0  0  0  0  0  0  0  0  0  0  0
    6.0010    2.1900    0.0000 H   0  0  0  0  0  0  0  0  0  0  0  0
    2.8660    1.6200    0.0000 H   0  0  0  0  0  0  0  0  0  0  0  0
    9.3954   -0.2284    0.0000 H   0  0  0  0  0  0  0  0  0  0  0  0
    8.5310    1.2688    0.0000 H   0  0  0  0  0  0  0  0  0  0  0  0
    7.7331   -3.8100    0.0000 H   0  0  0  0  0  0  0  0  0  0  0  0
    4.9272   -3.8100    0.0000 H   0  0  0  0  0  0  0  0  0  0  0  0
    3.1951    3.8100    0.0000 H   0  0  0  0  0  0  0  0  0  0  0  0
    2.8660   -1.6200    0.0000 H   0  0  0  0  0  0  0  0  0  0  0  0
    6.0010    3.8100    0.0000 H   0  0  0  0  0  0  0  0  0  0  0  0
    1.4631    0.8100    0.0000 H   0  0  0  0  0  0  0  0  0  0  0  0
    6.3301   -4.6200    0.0000 H   0  0  0  0  0  0  0  0  0  0  0  0
    1.4631   -0.8100    0.0000 H   0  0  0  0  0  0  0  0  0  0  0  0
    4.5981    4.6200    0.0000 H   0  0  0  0  0  0  0  0  0  0  0  0
  1  6  2  0  0  0  0
  2  4  1  0  0  0  0
  2 10  1  0  0  0  0
  2 11  1  0  0  0  0
  3  5  1  0  0  0  0
  3  6  1  0  0  0  0
  3 31  1  0  0  0  0
  4  6  1  0  0  0  0
  4  7  1  0  0  0  0
  4 29  1  0  0  0  0
  5  8  1  0  0  0  0
  5  9  1  0  0  0  0
  5 30  1  0  0  0  0
  7 12  2  0  0  0  0
  7 13  1  0  0  0  0
  8 14  2  0  0  0  0
  8 16  1  0  0  0  0
  9 15  2  0  0  0  0
  9 17  1  0  0  0  0
 10 18  2  0  0  0  0
 10 32  1  0  0  0  0
 11 19  2  0  0  0  0
 11 33  1  0  0  0  0
 12 20  1  0  0  0  0
 12 34  1  0  0  0  0
 13 21  2  0  0  0  0
 13 35  1  0  0  0  0
 14 22  1  0  0  0  0
 14 36  1  0  0  0  0
 15 23  1  0  0  0  0
 15 37  1  0  0  0  0
 16 24  2  0  0  0  0
 16 38  1  0  0  0  0
 17 25  2  0  0  0  0
 17 39  1  0  0  0  0
 18 19  1  0  0  0  0
 18 40  1  0  0  0  0
 19 41  1  0  0  0  0
 20 26  2  0  0  0  0
 20 42  1  0  0  0  0
 21 26  1  0  0  0  0
 21 43  1  0  0  0  0
 22 27  2  0  0  0  0
 22 44  1  0  0  0  0
 23 28  2  0  0  0  0
 23 45  1  0  0  0  0
 24 27  1  0  0  0  0
 24 46  1  0  0  0  0
 25 28  1  0  0  0  0
 25 47  1  0  0  0  0
 26 48  1  0  0  0  0
 27 50  1  0  0  0  0
 28 49  1  0  0  0  0
M  END
> <PUBCHEM_COMPOUND_CID>
56764436

> <PUBCHEM_COMPOUND_CANONICALIZED>
1

> <PUBCHEM_CACTVS_COMPLEXITY>
451

> <PUBCHEM_CACTVS_HBOND_ACCEPTOR>
1

> <PUBCHEM_CACTVS_HBOND_DONOR>
1

> <PUBCHEM_CACTVS_ROTATABLE_BOND>
6

> <PUBCHEM_CACTVS_SUBSKEYS>
AAADceB7IAAAAAAAAAAAAAAAAAAAAWAAAAAwYMAAAAAAAAAB1AAAHgAQAAAADCjBmgQ8gJPMEACoAjF3VACCgCAxAiAI2KG4ZJgIYPLAlbGUIAhglgDIyAcYiMCOAAAAAAAAAAAAAAAAAAAAAAAAAAAAAA==

> <PUBCHEM_IUPAC_OPENEYE_NAME>
N-benzhydryl-2-phenyl-2-pyrrol-1-yl-acetamide

> <PUBCHEM_IUPAC_CAS_NAME>
N-(diphenylmethyl)-2-phenyl-2-(1-pyrrolyl)acetamide

> <PUBCHEM_IUPAC_NAME>
N-benzhydryl-2-phenyl-2-pyrrol-1-ylacetamide

> <PUBCHEM_IUPAC_SYSTEMATIC_NAME>
N-(diphenylmethyl)-2-phenyl-2-pyrrol-1-yl-ethanamide

> <PUBCHEM_IUPAC_TRADITIONAL_NAME>
N-benzhydryl-2-phenyl-2-pyrrol-1-yl-acetamide

> <PUBCHEM_IUPAC_INCHI>
InChI=1S/C25H22N2O/c28-25(24(27-18-10-11-19-27)22-16-8-3-9-17-22)26-23(20-12-4-1-5-13-20)21-14-6-2-7-15-21/h1-19,23-24H,(H,26,28)

> <PUBCHEM_IUPAC_INCHIKEY>
SZGZRBXBEMASDR-UHFFFAOYSA-N

> <PUBCHEM_XLOGP3>
4.5

> <PUBCHEM_EXACT_MASS>
366.173213

> <PUBCHEM_MOLECULAR_FORMULA>
C25H22N2O

> <PUBCHEM_MOLECULAR_WEIGHT>
366.45498

> <PUBCHEM_OPENEYE_CAN_SMILES>
C1=CC=C(C=C1)C(C2=CC=CC=C2)NC(=O)C(C3=CC=CC=C3)N4C=CC=C4

> <PUBCHEM_OPENEYE_ISO_SMILES>
C1=CC=C(C=C1)C(C2=CC=CC=C2)NC(=O)C(C3=CC=CC=C3)N4C=CC=C4

> <PUBCHEM_CACTVS_TPSA>
34

> <PUBCHEM_MONOISOTOPIC_WEIGHT>
366.173213

> <PUBCHEM_TOTAL_CHARGE>
0

> <PUBCHEM_HEAVY_ATOM_COUNT>
28

> <PUBCHEM_ATOM_DEF_STEREO_COUNT>
0

> <PUBCHEM_ATOM_UDEF_STEREO_COUNT>
1

> <PUBCHEM_BOND_DEF_STEREO_COUNT>
0

> <PUBCHEM_BOND_UDEF_STEREO_COUNT>
0

> <PUBCHEM_ISOTOPIC_ATOM_COUNT>
0

> <PUBCHEM_COMPONENT_COUNT>
1

> <PUBCHEM_CACTVS_TAUTO_COUNT>
2

> <PUBCHEM_COORDINATE_TYPE>
1
5
255

> <PUBCHEM_BONDANNOTATIONS>
10  18  8
11  19  8
12  20  8
13  21  8
14  22  8
15  23  8
16  24  8
17  25  8
18  19  8
2  10  8
2  11  8
20  26  8
21  26  8
22  27  8
23  28  8
24  27  8
25  28  8
4  6  3
7  12  8
7  13  8
8  14  8
8  16  8
9  15  8
9  17  8

$$$$
56765715
  -OEChem-11301218112D

 30 30  0     0  0  0  0  0  0999 V2000
    5.4641   -0.6550    0.0000 O   0  0  0  0  0  0  0  0  0  0  0  0
    4.5981    0.8450    0.0000 N   0  0  0  0  0  0  0  0  0  0  0  0
    3.7320   -1.6550    0.0000 C   0  0  0  0  0  0  0  0  0  0  0  0
    3.7320   -0.6550    0.0000 C   0  0  0  0  0  0  0  0  0  0  0  0
    2.8660   -2.1550    0.0000 C   0  0  0  0  0  0  0  0  0  0  0  0
    2.8660   -3.1550    0.0000 C   0  0  0  0  0  0  0  0  0  0  0  0
    4.5981   -0.1550    0.0000 C   0  0  0  0  0  0  0  0  0  0  0  0
    4.5981   -2.1550    0.0000 C   0  0  0  0  0  0  0  0  0  0  0  0
    5.4641    1.3450    0.0000 C   0  0  0  0  0  0  0  0  0  0  0  0
    3.7320   -3.6550    0.0000 C   0  0  0  0  0  0  0  0  0  0  0  0
    4.5981   -3.1550    0.0000 C   0  0  0  0  0  0  0  0  0  0  0  0
    5.4641    2.3450    0.0000 C   0  0  0  0  0  0  0  0  0  0  0  0
    2.0000   -3.6550    0.0000 C   0  0  0  0  0  0  0  0  0  0  0  0
    6.3301    2.8450    0.0000 C   0  0  0  0  0  0  0  0  0  0  0  0
    7.1962    3.3450    0.0000 C   0  0  0  0  0  0  0  0  0  0  0  0
    3.5200   -0.0724    0.0000 H   0  0  0  0  0  0  0  0  0  0  0  0
    3.1215   -0.7627    0.0000 H   0  0  0  0  0  0  0  0  0  0  0  0
    2.3291   -1.8450    0.0000 H   0  0  0  0  0  0  0  0  0  0  0  0
    5.1350   -1.8450    0.0000 H   0  0  0  0  0  0  0  0  0  0  0  0
    5.6762    0.7624    0.0000 H   0  0  0  0  0  0  0  0  0  0  0  0
    6.0747    1.4527    0.0000 H   0  0  0  0  0  0  0  0  0  0  0  0
    4.0611    1.1550    0.0000 H   0  0  0  0  0  0  0  0  0  0  0  0
    3.7320   -4.2750    0.0000 H   0  0  0  0  0  0  0  0  0  0  0  0
    5.1350   -3.4650    0.0000 H   0  0  0  0  0  0  0  0  0  0  0  0
    5.2520    2.9276    0.0000 H   0  0  0  0  0  0  0  0  0  0  0  0
    4.8535    2.2373    0.0000 H   0  0  0  0  0  0  0  0  0  0  0  0
    1.6900   -3.1181    0.0000 H   0  0  0  0  0  0  0  0  0  0  0  0
    1.4631   -3.9650    0.0000 H   0  0  0  0  0  0  0  0  0  0  0  0
    2.3100   -4.1919    0.0000 H   0  0  0  0  0  0  0  0  0  0  0  0
    7.7331    3.6550    0.0000 H   0  0  0  0  0  0  0  0  0  0  0  0
  1  7  2  0  0  0  0
  2  7  1  0  0  0  0
  2  9  1  0  0  0  0
  2 22  1  0  0  0  0
  3  4  1  0  0  0  0
  3  5  1  0  0  0  0
  3  8  2  0  0  0  0
  4  7  1  0  0  0  0
  4 16  1  0  0  0  0
  4 17  1  0  0  0  0
  5  6  2  0  0  0  0
  5 18  1  0  0  0  0
  6 10  1  0  0  0  0
  6 13  1  0  0  0  0
  8 11  1  0  0  0  0
  8 19  1  0  0  0  0
  9 12  1  0  0  0  0
  9 20  1  0  0  0  0
  9 21  1  0  0  0  0
 10 11  2  0  0  0  0
 10 23  1  0  0  0  0
 11 24  1  0  0  0  0
 12 14  1  0  0  0  0
 12 25  1  0  0  0  0
 12 26  1  0  0  0  0
 13 27  1  0  0  0  0
 13 28  1  0  0  0  0
 13 29  1  0  0  0  0
 14 15  3  0  0  0  0
 15 30  1  0  0  0  0
M  END
> <PUBCHEM_COMPOUND_CID>
56765715

> <PUBCHEM_COMPOUND_CANONICALIZED>
1

> <PUBCHEM_CACTVS_COMPLEXITY>
251

> <PUBCHEM_CACTVS_HBOND_ACCEPTOR>
1

> <PUBCHEM_CACTVS_HBOND_DONOR>
1

> <PUBCHEM_CACTVS_ROTATABLE_BOND>
4

> <PUBCHEM_CACTVS_SUBSKEYS>
AAADccByIAAAAAAAAAAAAAAAAAAAAAAAAAAwAAAAAAAAAAABAAAAHgAQAAAADADBmAQyAILAAADIGiFSEAgCAAAgAAAIiIEIAIgIIDKAlRGEIAAglgCIiAcYiMCOAAACAAAAAAAAAAQAAAAAAAAAAAAAAA==

> <PUBCHEM_IUPAC_OPENEYE_NAME>
N-but-3-ynyl-2-(m-tolyl)acetamide

> <PUBCHEM_IUPAC_CAS_NAME>
N-but-3-ynyl-2-(3-methylphenyl)acetamide

> <PUBCHEM_IUPAC_NAME>
N-but-3-ynyl-2-(3-methylphenyl)acetamide

> <PUBCHEM_IUPAC_SYSTEMATIC_NAME>
N-but-3-ynyl-2-(3-methylphenyl)ethanamide

> <PUBCHEM_IUPAC_TRADITIONAL_NAME>
N-but-3-ynyl-2-(m-tolyl)acetamide

> <PUBCHEM_IUPAC_INCHI>
InChI=1S/C13H15NO/c1-3-4-8-14-13(15)10-12-7-5-6-11(2)9-12/h1,5-7,9H,4,8,10H2,2H3,(H,14,15)

> <PUBCHEM_IUPAC_INCHIKEY>
JIFYTSAPXQWUJJ-UHFFFAOYSA-N

> <PUBCHEM_XLOGP3>
2.3

> <PUBCHEM_EXACT_MASS>
201.115364

> <PUBCHEM_MOLECULAR_FORMULA>
C13H15NO

> <PUBCHEM_MOLECULAR_WEIGHT>
201.2643

> <PUBCHEM_OPENEYE_CAN_SMILES>
CC1=CC(=CC=C1)CC(=O)NCCC#C

> <PUBCHEM_OPENEYE_ISO_SMILES>
CC1=CC(=CC=C1)CC(=O)NCCC#C

> <PUBCHEM_CACTVS_TPSA>
29.1

> <PUBCHEM_MONOISOTOPIC_WEIGHT>
201.115364

> <PUBCHEM_TOTAL_CHARGE>
0

> <PUBCHEM_HEAVY_ATOM_COUNT>
15

> <PUBCHEM_ATOM_DEF_STEREO_COUNT>
0

> <PUBCHEM_ATOM_UDEF_STEREO_COUNT>
0

> <PUBCHEM_BOND_DEF_STEREO_COUNT>
0

> <PUBCHEM_BOND_UDEF_STEREO_COUNT>
0

> <PUBCHEM_ISOTOPIC_ATOM_COUNT>
0

> <PUBCHEM_COMPONENT_COUNT>
1

> <PUBCHEM_CACTVS_TAUTO_COUNT>
2

> <PUBCHEM_COORDINATE_TYPE>
1
5
255

> <PUBCHEM_BONDANNOTATIONS>
10  11  8
3  5  8
3  8  8
5  6  8
6  10  8
8  11  8

$$$$
56765719
  -OEChem-11301218112D

 28 29  0     0  0  0  0  0  0999 V2000
    6.8671   -1.6970    0.0000 O   0  0  0  0  0  0  0  0  0  0  0  0
   10.4114    1.1077    0.0000 N   0  0  0  0  0  0  0  0  0  0  0  0
    6.0010   -0.1970    0.0000 N   0  0  0  0  0  0  0  0  0  0  0  0
    9.4651   -0.1970    0.0000 C   0  0  0  0  0  0  0  0  0  0  0  0
    9.4651    0.8030    0.0000 C   0  0  0  0  0  0  0  0  0  0  0  0
    7.7331   -0.1970    0.0000 C   0  0  0  0  0  0  0  0  0  0  0  0
    8.5991   -0.6970    0.0000 C   0  0  0  0  0  0  0  0  0  0  0  0
    8.5991    1.3030    0.0000 C   0  0  0  0  0  0  0  0  0  0  0  0
    7.7331    0.8030    0.0000 C   0  0  0  0  0  0  0  0  0  0  0  0
   10.4114   -0.5018    0.0000 C   0  0  0  0  0  0  0  0  0  0  0  0
    6.8671   -0.6970    0.0000 C   0  0  0  0  0  0  0  0  0  0  0  0
   10.9950    0.3030    0.0000 C   0  0  0  0  0  0  0  0  0  0  0  0
    5.1350   -0.6970    0.0000 C   0  0  0  0  0  0  0  0  0  0  0  0
    4.2690   -0.1970    0.0000 C   0  0  0  0  0  0  0  0  0  0  0  0
    3.4030   -0.6970    0.0000 C   0  0  0  0  0  0  0  0  0  0  0  0
    2.5369   -1.1970    0.0000 C   0  0  0  0  0  0  0  0  0  0  0  0
    8.5991   -1.3170    0.0000 H   0  0  0  0  0  0  0  0  0  0  0  0
    8.5991    1.9230    0.0000 H   0  0  0  0  0  0  0  0  0  0  0  0
    7.1962    1.1130    0.0000 H   0  0  0  0  0  0  0  0  0  0  0  0
   10.6040   -1.0911    0.0000 H   0  0  0  0  0  0  0  0  0  0  0  0
   10.6040    1.6970    0.0000 H   0  0  0  0  0  0  0  0  0  0  0  0
   11.6150    0.3030    0.0000 H   0  0  0  0  0  0  0  0  0  0  0  0
    4.7365   -1.1720    0.0000 H   0  0  0  0  0  0  0  0  0  0  0  0
    5.5335   -1.1720    0.0000 H   0  0  0  0  0  0  0  0  0  0  0  0
    6.0010    0.4230    0.0000 H   0  0  0  0  0  0  0  0  0  0  0  0
    4.6675    0.2779    0.0000 H   0  0  0  0  0  0  0  0  0  0  0  0
    3.8705    0.2779    0.0000 H   0  0  0  0  0  0  0  0  0  0  0  0
    2.0000   -1.5070    0.0000 H   0  0  0  0  0  0  0  0  0  0  0  0
  1 11  2  0  0  0  0
  2  5  1  0  0  0  0
  2 12  1  0  0  0  0
  2 21  1  0  0  0  0
  3 11  1  0  0  0  0
  3 13  1  0  0  0  0
  3 25  1  0  0  0  0
  4  5  2  0  0  0  0
  4  7  1  0  0  0  0
  4 10  1  0  0  0  0
  5  8  1  0  0  0  0
  6  7  2  0  0  0  0
  6  9  1  0  0  0  0
  6 11  1  0  0  0  0
  7 17  1  0  0  0  0
  8  9  2  0  0  0  0
  8 18  1  0  0  0  0
  9 19  1  0  0  0  0
 10 12  2  0  0  0  0
 10 20  1  0  0  0  0
 12 22  1  0  0  0  0
 13 14  1  0  0  0  0
 13 23  1  0  0  0  0
 13 24  1  0  0  0  0
 14 15  1  0  0  0  0
 14 26  1  0  0  0  0
 14 27  1  0  0  0  0
 15 16  3  0  0  0  0
 16 28  1  0  0  0  0
M  END
> <PUBCHEM_COMPOUND_CID>
56765719

> <PUBCHEM_COMPOUND_CANONICALIZED>
1

> <PUBCHEM_CACTVS_COMPLEXITY>
304

> <PUBCHEM_CACTVS_HBOND_ACCEPTOR>
1

> <PUBCHEM_CACTVS_HBOND_DONOR>
2

> <PUBCHEM_CACTVS_ROTATABLE_BOND>
3

> <PUBCHEM_CACTVS_SUBSKEYS>
AAADccBzIAAAAAAAAAAAAAAAAAAAAWAAAAAwAAAAAAAAAFgB8AAAHgAQAAAADAjBngQ8wPLJkADoGzV3VAiCgCA1AiAI2aE4ZNgIIPLAlZGEIQhglgDIyYcYicCeCAACAAACAAAQAAQAAAQAAAAAAAAAAA==

> <PUBCHEM_IUPAC_OPENEYE_NAME>
N-but-3-ynyl-1H-indole-5-carboxamide

> <PUBCHEM_IUPAC_CAS_NAME>
N-but-3-ynyl-1H-indole-5-carboxamide

> <PUBCHEM_IUPAC_NAME>
N-but-3-ynyl-1H-indole-5-carboxamide

> <PUBCHEM_IUPAC_SYSTEMATIC_NAME>
N-but-3-ynyl-1H-indole-5-carboxamide

> <PUBCHEM_IUPAC_TRADITIONAL_NAME>
N-but-3-ynyl-1H-indole-5-carboxamide

> <PUBCHEM_IUPAC_INCHI>
InChI=1S/C13H12N2O/c1-2-3-7-15-13(16)11-4-5-12-10(9-11)6-8-14-12/h1,4-6,8-9,14H,3,7H2,(H,15,16)

> <PUBCHEM_IUPAC_INCHIKEY>
JECHRCWDUJZJEV-UHFFFAOYSA-N

> <PUBCHEM_XLOGP3>
1.8

> <PUBCHEM_EXACT_MASS>
212.094963

> <PUBCHEM_MOLECULAR_FORMULA>
C13H12N2O

> <PUBCHEM_MOLECULAR_WEIGHT>
212.24718

> <PUBCHEM_OPENEYE_CAN_SMILES>
C#CCCNC(=O)C1=CC2=C(C=C1)NC=C2

> <PUBCHEM_OPENEYE_ISO_SMILES>
C#CCCNC(=O)C1=CC2=C(C=C1)NC=C2

> <PUBCHEM_CACTVS_TPSA>
44.9

> <PUBCHEM_MONOISOTOPIC_WEIGHT>
212.094963

> <PUBCHEM_TOTAL_CHARGE>
0

> <PUBCHEM_HEAVY_ATOM_COUNT>
16

> <PUBCHEM_ATOM_DEF_STEREO_COUNT>
0

> <PUBCHEM_ATOM_UDEF_STEREO_COUNT>
0

> <PUBCHEM_BOND_DEF_STEREO_COUNT>
0

> <PUBCHEM_BOND_UDEF_STEREO_COUNT>
0

> <PUBCHEM_ISOTOPIC_ATOM_COUNT>
0

> <PUBCHEM_COMPONENT_COUNT>
1

> <PUBCHEM_CACTVS_TAUTO_COUNT>
5

> <PUBCHEM_COORDINATE_TYPE>
1
5
255

> <PUBCHEM_BONDANNOTATIONS>
10  12  8
2  12  8
2  5  8
4  10  8
4  5  8
4  7  8
5  8  8
6  7  8
6  9  8
8  9  8

$$$$
56765724
  -OEChem-11301218112D

 26 26  0     0  0  0  0  0  0999 V2000
    4.5981   -0.6550    0.0000 O   0  0  0  0  0  0  0  0  0  0  0  0
    3.7320    0.8450    0.0000 N   0  0  0  0  0  0  0  0  0  0  0  0
    2.8660   -0.6550    0.0000 N   0  0  0  0  0  0  0  0  0  0  0  0
    4.5981    1.3450    0.0000 C   0  0  0  0  0  0  0  0  0  0  0  0
    2.8660   -1.6550    0.0000 C   0  0  0  0  0  0  0  0  0  0  0  0
    4.5981    2.3450    0.0000 C   0  0  0  0  0  0  0  0  0  0  0  0
    3.7320   -0.1550    0.0000 C   0  0  0  0  0  0  0  0  0  0  0  0
    2.0000   -2.1550    0.0000 C   0  0  0  0  0  0  0  0  0  0  0  0
    3.7320   -2.1550    0.0000 C   0  0  0  0  0  0  0  0  0  0  0  0
    2.0000   -3.1550    0.0000 C   0  0  0  0  0  0  0  0  0  0  0  0
    3.7320   -3.1550    0.0000 C   0  0  0  0  0  0  0  0  0  0  0  0
    2.8660   -3.6550    0.0000 C   0  0  0  0  0  0  0  0  0  0  0  0
    5.4641    2.8450    0.0000 C   0  0  0  0  0  0  0  0  0  0  0  0
    6.3301    3.3450    0.0000 C   0  0  0  0  0  0  0  0  0  0  0  0
    4.8101    0.7624    0.0000 H   0  0  0  0  0  0  0  0  0  0  0  0
    5.2087    1.4527    0.0000 H   0  0  0  0  0  0  0  0  0  0  0  0
    3.1951    1.1550    0.0000 H   0  0  0  0  0  0  0  0  0  0  0  0
    4.3860    2.9276    0.0000 H   0  0  0  0  0  0  0  0  0  0  0  0
    3.9875    2.2373    0.0000 H   0  0  0  0  0  0  0  0  0  0  0  0
    2.3291   -0.3450    0.0000 H   0  0  0  0  0  0  0  0  0  0  0  0
    1.4631   -1.8450    0.0000 H   0  0  0  0  0  0  0  0  0  0  0  0
    4.2690   -1.8450    0.0000 H   0  0  0  0  0  0  0  0  0  0  0  0
    1.4631   -3.4650    0.0000 H   0  0  0  0  0  0  0  0  0  0  0  0
    4.2690   -3.4650    0.0000 H   0  0  0  0  0  0  0  0  0  0  0  0
    2.8660   -4.2750    0.0000 H   0  0  0  0  0  0  0  0  0  0  0  0
    6.8671    3.6550    0.0000 H   0  0  0  0  0  0  0  0  0  0  0  0
  1  7  2  0  0  0  0
  2  4  1  0  0  0  0
  2  7  1  0  0  0  0
  2 17  1  0  0  0  0
  3  5  1  0  0  0  0
  3  7  1  0  0  0  0
  3 20  1  0  0  0  0
  4  6  1  0  0  0  0
  4 15  1  0  0  0  0
  4 16  1  0  0  0  0
  5  8  2  0  0  0  0
  5  9  1  0  0  0  0
  6 13  1  0  0  0  0
  6 18  1  0  0  0  0
  6 19  1  0  0  0  0
  8 10  1  0  0  0  0
  8 21  1  0  0  0  0
  9 11  2  0  0  0  0
  9 22  1  0  0  0  0
 10 12  2  0  0  0  0
 10 23  1  0  0  0  0
 11 12  1  0  0  0  0
 11 24  1  0  0  0  0
 12 25  1  0  0  0  0
 13 14  3  0  0  0  0
 14 26  1  0  0  0  0
M  END
> <PUBCHEM_COMPOUND_CID>
56765724

> <PUBCHEM_COMPOUND_CANONICALIZED>
1

> <PUBCHEM_CACTVS_COMPLEXITY>
223

> <PUBCHEM_CACTVS_HBOND_ACCEPTOR>
1

> <PUBCHEM_CACTVS_HBOND_DONOR>
2

> <PUBCHEM_CACTVS_ROTATABLE_BOND>
3

> <PUBCHEM_CACTVS_SUBSKEYS>
AAADccBzIAAAAAAAAAAAAAAAAAAAAAAAAAAwAAAAAAAAAAABAAAAHgAQAAAACAjBEAQxwILAAADIGCRCUAiCAAAhAgAIiIAIZIiIICLAkZGEIAholgJIyCcQAAAAAAAAAAAAAAAAAAAAAAAAAAAAAAAAAA==

> <PUBCHEM_IUPAC_OPENEYE_NAME>
1-but-3-ynyl-3-phenyl-urea

> <PUBCHEM_IUPAC_CAS_NAME>
1-but-3-ynyl-3-phenylurea

> <PUBCHEM_IUPAC_NAME>
1-but-3-ynyl-3-phenylurea

> <PUBCHEM_IUPAC_SYSTEMATIC_NAME>
1-but-3-ynyl-3-phenyl-urea

> <PUBCHEM_IUPAC_TRADITIONAL_NAME>
1-but-3-ynyl-3-phenyl-urea

> <PUBCHEM_IUPAC_INCHI>
InChI=1S/C11H12N2O/c1-2-3-9-12-11(14)13-10-7-5-4-6-8-10/h1,4-8H,3,9H2,(H2,12,13,14)

> <PUBCHEM_IUPAC_INCHIKEY>
FONOIVYXYJGRCA-UHFFFAOYSA-N

> <PUBCHEM_XLOGP3>
1.8

> <PUBCHEM_EXACT_MASS>
188.094963

> <PUBCHEM_MOLECULAR_FORMULA>
C11H12N2O

> <PUBCHEM_MOLECULAR_WEIGHT>
188.22578

> <PUBCHEM_OPENEYE_CAN_SMILES>
C#CCCNC(=O)NC1=CC=CC=C1

> <PUBCHEM_OPENEYE_ISO_SMILES>
C#CCCNC(=O)NC1=CC=CC=C1

> <PUBCHEM_CACTVS_TPSA>
41.1

> <PUBCHEM_MONOISOTOPIC_WEIGHT>
188.094963

> <PUBCHEM_TOTAL_CHARGE>
0

> <PUBCHEM_HEAVY_ATOM_COUNT>
14

> <PUBCHEM_ATOM_DEF_STEREO_COUNT>
0

> <PUBCHEM_ATOM_UDEF_STEREO_COUNT>
0

> <PUBCHEM_BOND_DEF_STEREO_COUNT>
0

> <PUBCHEM_BOND_UDEF_STEREO_COUNT>
0

> <PUBCHEM_ISOTOPIC_ATOM_COUNT>
0

> <PUBCHEM_COMPONENT_COUNT>
1

> <PUBCHEM_CACTVS_TAUTO_COUNT>
3

> <PUBCHEM_COORDINATE_TYPE>
1
5
255

> <PUBCHEM_BONDANNOTATIONS>
10  12  8
11  12  8
5  8  8
5  9  8
8  10  8
9  11  8

$$$$
56771982
  -OEChem-11301218112D

 54 57  0     0  0  0  0  0  0999 V2000
    8.6651    3.0242    0.0000 F   0  0  0  0  0  0  0  0  0  0  0  0
    3.4030   -4.0000    0.0000 F   0  0  0  0  0  0  0  0  0  0  0  0
    2.4030   -3.0000    0.0000 F   0  0  0  0  0  0  0  0  0  0  0  0
    4.4030   -3.0000    0.0000 F   0  0  0  0  0  0  0  0  0  0  0  0
    5.1350    4.0000    0.0000 O   0  0  0  0  0  0  0  0  0  0  0  0
    2.5369    2.5000    0.0000 O   0  0  0  0  0  0  0  0  0  0  0  0
    3.4030    4.0000    0.0000 O   0  0  0  0  0  0  0  0  0  0  0  0
    8.6651    0.9758    0.0000 N   0  0  0  0  0  0  0  0  0  0  0  0
   10.3933   -0.0308    0.0000 N   0  0  0  0  0  0  0  0  0  0  0  0
    5.1350    1.0000    0.0000 N   0  0  0  0  0  0  0  0  0  0  0  0
    9.5331    1.4725    0.0000 C   0  0  0  0  0  0  0  0  0  0  0  0
    8.6613   -0.0241    0.0000 C   0  0  0  0  0  0  0  0  0  0  0  0
   10.3972    0.9692    0.0000 C   0  0  0  0  0  0  0  0  0  0  0  0
    9.5254   -0.5275    0.0000 C   0  0  0  0  0  0  0  0  0  0  0  0
    7.8010    1.4792    0.0000 C   0  0  0  0  0  0  0  0  0  0  0  0
    6.0010    1.5000    0.0000 C   0  0  0  0  0  0  0  0  0  0  0  0
    6.8950    0.9653    0.0000 C   0  0  0  0  0  0  0  0  0  0  0  0
   11.2574   -0.5342    0.0000 C   0  0  0  0  0  0  0  0  0  0  0  0
    6.0010    2.5000    0.0000 C   0  0  0  0  0  0  0  0  0  0  0  0
    7.8010    2.5208    0.0000 C   0  0  0  0  0  0  0  0  0  0  0  0
    6.8950    3.0347    0.0000 C   0  0  0  0  0  0  0  0  0  0  0  0
    5.1350   -0.0000    0.0000 C   0  0  0  0  0  0  0  0  0  0  0  0
    5.1350    3.0000    0.0000 C   0  0  0  0  0  0  0  0  0  0  0  0
    4.2690    1.5000    0.0000 C   0  0  0  0  0  0  0  0  0  0  0  0
    4.2690    2.5000    0.0000 C   0  0  0  0  0  0  0  0  0  0  0  0
    4.2690   -0.5000    0.0000 C   0  0  0  0  0  0  0  0  0  0  0  0
    4.2690   -1.5000    0.0000 C   0  0  0  0  0  0  0  0  0  0  0  0
    3.4030   -0.0000    0.0000 C   0  0  0  0  0  0  0  0  0  0  0  0
    3.4030    3.0000    0.0000 C   0  0  0  0  0  0  0  0  0  0  0  0
    3.4030   -2.0000    0.0000 C   0  0  0  0  0  0  0  0  0  0  0  0
    2.5369   -0.5000    0.0000 C   0  0  0  0  0  0  0  0  0  0  0  0
    2.5369   -1.5000    0.0000 C   0  0  0  0  0  0  0  0  0  0  0  0
    3.4030   -3.0000    0.0000 C   0  0  0  0  0  0  0  0  0  0  0  0
    9.9334    1.9459    0.0000 H   0  0  0  0  0  0  0  0  0  0  0  0
    9.1364    1.9490    0.0000 H   0  0  0  0  0  0  0  0  0  0  0  0
    8.0511    0.0859    0.0000 H   0  0  0  0  0  0  0  0  0  0  0  0
    8.4470   -0.6059    0.0000 H   0  0  0  0  0  0  0  0  0  0  0  0
    9.1250   -1.0009    0.0000 H   0  0  0  0  0  0  0  0  0  0  0  0
    9.9221   -1.0040    0.0000 H   0  0  0  0  0  0  0  0  0  0  0  0
   11.0073    0.8592    0.0000 H   0  0  0  0  0  0  0  0  0  0  0  0
   10.6115    1.5510    0.0000 H   0  0  0  0  0  0  0  0  0  0  0  0
    6.8878    0.3454    0.0000 H   0  0  0  0  0  0  0  0  0  0  0  0
   10.9453   -1.0699    0.0000 H   0  0  0  0  0  0  0  0  0  0  0  0
   11.7931   -0.8462    0.0000 H   0  0  0  0  0  0  0  0  0  0  0  0
   11.5695    0.0016    0.0000 H   0  0  0  0  0  0  0  0  0  0  0  0
    6.8878    3.6546    0.0000 H   0  0  0  0  0  0  0  0  0  0  0  0
    5.3471   -0.5826    0.0000 H   0  0  0  0  0  0  0  0  0  0  0  0
    5.7456    0.1077    0.0000 H   0  0  0  0  0  0  0  0  0  0  0  0
    3.7320    1.1900    0.0000 H   0  0  0  0  0  0  0  0  0  0  0  0
    4.8059   -1.8100    0.0000 H   0  0  0  0  0  0  0  0  0  0  0  0
    3.4030    0.6200    0.0000 H   0  0  0  0  0  0  0  0  0  0  0  0
    2.0000   -0.1900    0.0000 H   0  0  0  0  0  0  0  0  0  0  0  0
    2.0000   -1.8100    0.0000 H   0  0  0  0  0  0  0  0  0  0  0  0
    2.0000    2.8100    0.0000 H   0  0  0  0  0  0  0  0  0  0  0  0
  1 20  1  0  0  0  0
  2 33  1  0  0  0  0
  3 33  1  0  0  0  0
  4 33  1  0  0  0  0
  5 23  2  0  0  0  0
  6 29  1  0  0  0  0
  6 54  1  0  0  0  0
  7 29  2  0  0  0  0
  8 11  1  0  0  0  0
  8 12  1  0  0  0  0
  8 15  1  0  0  0  0
  9 13  1  0  0  0  0
  9 14  1  0  0  0  0
  9 18  1  0  0  0  0
 10 16  1  0  0  0  0
 10 22  1  0  0  0  0
 10 24  1  0  0  0  0
 11 13  1  0  0  0  0
 11 34  1  0  0  0  0
 11 35  1  0  0  0  0
 12 14  1  0  0  0  0
 12 36  1  0  0  0  0
 12 37  1  0  0  0  0
 13 40  1  0  0  0  0
 13 41  1  0  0  0  0
 14 38  1  0  0  0  0
 14 39  1  0  0  0  0
 15 17  1  0  0  0  0
 15 20  2  0  0  0  0
 16 17  2  0  0  0  0
 16 19  1  0  0  0  0
 17 42  1  0  0  0  0
 18 43  1  0  0  0  0
 18 44  1  0  0  0  0
 18 45  1  0  0  0  0
 19 21  2  0  0  0  0
 19 23  1  0  0  0  0
 20 21  1  0  0  0  0
 21 46  1  0  0  0  0
 22 26  1  0  0  0  0
 22 47  1  0  0  0  0
 22 48  1  0  0  0  0
 23 25  1  0  0  0  0
 24 25  2  0  0  0  0
 24 49  1  0  0  0  0
 25 29  1  0  0  0  0
 26 27  2  0  0  0  0
 26 28  1  0  0  0  0
 27 30  1  0  0  0  0
 27 50  1  0  0  0  0
 28 31  2  0  0  0  0
 28 51  1  0  0  0  0
 30 32  2  0  0  0  0
 30 33  1  0  0  0  0
 31 32  1  0  0  0  0
 31 52  1  0  0  0  0
 32 53  1  0  0  0  0
M  END
> <PUBCHEM_COMPOUND_CID>
56771982

> <PUBCHEM_COMPOUND_CANONICALIZED>
1

> <PUBCHEM_CACTVS_COMPLEXITY>
781

> <PUBCHEM_CACTVS_HBOND_ACCEPTOR>
10

> <PUBCHEM_CACTVS_HBOND_DONOR>
1

> <PUBCHEM_CACTVS_ROTATABLE_BOND>
4

> <PUBCHEM_CACTVS_SUBSKEYS>
AAADceB7McAAAAAAAAAAAAAAAAAAAAAAAAA8YIEAAAAAAACBQAAAHwAACAAADAzBmBwyyIMAAgCIAqTWSACCAAAlAgAIiAEIZMgIZD7I1dGUYYhkoADI2ceY2eOeCAACAAQCAAAQAAQACAQAAAAAAAAAAA==

> <PUBCHEM_IUPAC_OPENEYE_NAME>
6-fluoro-7-(4-methylpiperazin-1-yl)-4-oxo-1-[[3-(trifluoromethyl)phenyl]methyl]quinoline-3-carboxylic acid

> <PUBCHEM_IUPAC_CAS_NAME>
6-fluoro-7-(4-methyl-1-piperazinyl)-4-oxo-1-[[3-(trifluoromethyl)phenyl]methyl]-3-quinolinecarboxylic acid

> <PUBCHEM_IUPAC_NAME>
6-fluoro-7-(4-methylpiperazin-1-yl)-4-oxo-1-[[3-(trifluoromethyl)phenyl]methyl]quinoline-3-carboxylic acid

> <PUBCHEM_IUPAC_SYSTEMATIC_NAME>
6-fluoranyl-7-(4-methylpiperazin-1-yl)-4-oxidanylidene-1-[[3-(trifluoromethyl)phenyl]methyl]quinoline-3-carboxylic acid

> <PUBCHEM_IUPAC_TRADITIONAL_NAME>
6-fluoro-4-keto-7-(4-methylpiperazino)-1-[3-(trifluoromethyl)benzyl]quinoline-3-carboxylic acid

> <PUBCHEM_IUPAC_INCHI>
InChI=1S/C23H21F4N3O3/c1-28-5-7-29(8-6-28)20-11-19-16(10-18(20)24)21(31)17(22(32)33)13-30(19)12-14-3-2-4-15(9-14)23(25,26)27/h2-4,9-11,13H,5-8,12H2,1H3,(H,32,33)

> <PUBCHEM_IUPAC_INCHIKEY>
FLYUHWDLBMXNIR-UHFFFAOYSA-N

> <PUBCHEM_XLOGP3>
2.3

> <PUBCHEM_EXACT_MASS>
463.151904

> <PUBCHEM_MOLECULAR_FORMULA>
C23H21F4N3O3

> <PUBCHEM_MOLECULAR_WEIGHT>
463.424753

> <PUBCHEM_OPENEYE_CAN_SMILES>
CN1CCN(CC1)C2=C(C=C3C(=C2)N(C=C(C3=O)C(=O)O)CC4=CC(=CC=C4)C(F)(F)F)F

> <PUBCHEM_OPENEYE_ISO_SMILES>
CN1CCN(CC1)C2=C(C=C3C(=C2)N(C=C(C3=O)C(=O)O)CC4=CC(=CC=C4)C(F)(F)F)F

> <PUBCHEM_CACTVS_TPSA>
64.1

> <PUBCHEM_MONOISOTOPIC_WEIGHT>
463.151904

> <PUBCHEM_TOTAL_CHARGE>
0

> <PUBCHEM_HEAVY_ATOM_COUNT>
33

> <PUBCHEM_ATOM_DEF_STEREO_COUNT>
0

> <PUBCHEM_ATOM_UDEF_STEREO_COUNT>
0

> <PUBCHEM_BOND_DEF_STEREO_COUNT>
0

> <PUBCHEM_BOND_UDEF_STEREO_COUNT>
0

> <PUBCHEM_ISOTOPIC_ATOM_COUNT>
0

> <PUBCHEM_COMPONENT_COUNT>
1

> <PUBCHEM_CACTVS_TAUTO_COUNT>
1

> <PUBCHEM_COORDINATE_TYPE>
1
5
255

> <PUBCHEM_BONDANNOTATIONS>
10  16  8
10  24  8
15  17  8
15  20  8
16  17  8
16  19  8
19  21  8
19  23  8
20  21  8
23  25  8
24  25  8
26  27  8
26  28  8
27  30  8
28  31  8
30  32  8
31  32  8

$$$$
56773346
  -OEChem-11301218122D

 26 28  0     0  0  0  0  0  0999 V2000
    6.8497   -0.9622    0.0000 O   0  0  0  0  0  0  0  0  0  0  0  0
    4.6783    0.6516    0.0000 N   0  0  0  0  0  0  0  0  0  0  0  0
    5.2619   -0.1531    0.0000 C   0  0  0  0  0  0  0  0  0  0  0  0
    3.7320    0.3469    0.0000 C   0  0  0  0  0  0  0  0  0  0  0  0
    3.7320   -0.6531    0.0000 C   0  0  0  0  0  0  0  0  0  0  0  0
    4.6783   -0.9579    0.0000 C   0  0  0  0  0  0  0  0  0  0  0  0
    6.2619   -0.1531    0.0000 C   0  0  0  0  0  0  0  0  0  0  0  0
    2.8660    0.8469    0.0000 C   0  0  0  0  0  0  0  0  0  0  0  0
    2.8660   -1.1531    0.0000 C   0  0  0  0  0  0  0  0  0  0  0  0
    6.8497    0.6559    0.0000 C   0  0  0  0  0  0  0  0  0  0  0  0
    7.8007   -0.6531    0.0000 C   0  0  0  0  0  0  0  0  0  0  0  0
    7.8007    0.3469    0.0000 C   0  0  0  0  0  0  0  0  0  0  0  0
    2.0000    0.3469    0.0000 C   0  0  0  0  0  0  0  0  0  0  0  0
    2.0000   -0.6531    0.0000 C   0  0  0  0  0  0  0  0  0  0  0  0
    8.6097   -1.2409    0.0000 C   0  0  0  0  0  0  0  0  0  0  0  0
    4.8709    1.2409    0.0000 H   0  0  0  0  0  0  0  0  0  0  0  0
    4.8709   -1.5472    0.0000 H   0  0  0  0  0  0  0  0  0  0  0  0
    2.8660    1.4669    0.0000 H   0  0  0  0  0  0  0  0  0  0  0  0
    2.8660   -1.7731    0.0000 H   0  0  0  0  0  0  0  0  0  0  0  0
    6.6581    1.2455    0.0000 H   0  0  0  0  0  0  0  0  0  0  0  0
    8.3023    0.7113    0.0000 H   0  0  0  0  0  0  0  0  0  0  0  0
    1.4631    0.6569    0.0000 H   0  0  0  0  0  0  0  0  0  0  0  0
    1.4631   -0.9631    0.0000 H   0  0  0  0  0  0  0  0  0  0  0  0
    8.2453   -1.7425    0.0000 H   0  0  0  0  0  0  0  0  0  0  0  0
    9.1113   -1.6054    0.0000 H   0  0  0  0  0  0  0  0  0  0  0  0
    8.9742   -0.7393    0.0000 H   0  0  0  0  0  0  0  0  0  0  0  0
  1  7  1  0  0  0  0
  1 11  1  0  0  0  0
  2  3  1  0  0  0  0
  2  4  1  0  0  0  0
  2 16  1  0  0  0  0
  3  6  2  0  0  0  0
  3  7  1  0  0  0  0
  4  5  1  0  0  0  0
  4  8  2  0  0  0  0
  5  6  1  0  0  0  0
  5  9  2  0  0  0  0
  6 17  1  0  0  0  0
  7 10  2  0  0  0  0
  8 13  1  0  0  0  0
  8 18  1  0  0  0  0
  9 14  1  0  0  0  0
  9 19  1  0  0  0  0
 10 12  1  0  0  0  0
 10 20  1  0  0  0  0
 11 12  2  0  0  0  0
 11 15  1  0  0  0  0
 12 21  1  0  0  0  0
 13 14  2  0  0  0  0
 13 22  1  0  0  0  0
 14 23  1  0  0  0  0
 15 24  1  0  0  0  0
 15 25  1  0  0  0  0
 15 26  1  0  0  0  0
M  END
> <PUBCHEM_COMPOUND_CID>
56773346

> <PUBCHEM_COMPOUND_CANONICALIZED>
1

> <PUBCHEM_CACTVS_COMPLEXITY>
231

> <PUBCHEM_CACTVS_HBOND_ACCEPTOR>
1

> <PUBCHEM_CACTVS_HBOND_DONOR>
1

> <PUBCHEM_CACTVS_ROTATABLE_BOND>
1

> <PUBCHEM_CACTVS_SUBSKEYS>
AAADccByIAAAAAAAAAAAAAAAAAAAAWJAAAAwAAAAAAAAAFgB/AAAHgAQAAAADAyBngAyxPLJlECoA6RyRASCiCAnIiAImSG2bNgOJvLEtbuHOSjk0BHY6YeY2eOeAAAAAAACAAAAAAAAAAQAAAAAAAAAAA==

> <PUBCHEM_IUPAC_OPENEYE_NAME>
2-(5-methyl-2-furyl)-1H-indole

> <PUBCHEM_IUPAC_CAS_NAME>
2-(5-methyl-2-furanyl)-1H-indole

> <PUBCHEM_IUPAC_NAME>
2-(5-methylfuran-2-yl)-1H-indole

> <PUBCHEM_IUPAC_SYSTEMATIC_NAME>
2-(5-methylfuran-2-yl)-1H-indole

> <PUBCHEM_IUPAC_TRADITIONAL_NAME>
2-(5-methyl-2-furyl)-1H-indole

> <PUBCHEM_IUPAC_INCHI>
InChI=1S/C13H11NO/c1-9-6-7-13(15-9)12-8-10-4-2-3-5-11(10)14-12/h2-8,14H,1H3

> <PUBCHEM_IUPAC_INCHIKEY>
DUSRJYQCFUCVQE-UHFFFAOYSA-N

> <PUBCHEM_XLOGP3>
3.9

> <PUBCHEM_EXACT_MASS>
197.084064

> <PUBCHEM_MOLECULAR_FORMULA>
C13H11NO

> <PUBCHEM_MOLECULAR_WEIGHT>
197.23254

> <PUBCHEM_OPENEYE_CAN_SMILES>
CC1=CC=C(O1)C2=CC3=CC=CC=C3N2

> <PUBCHEM_OPENEYE_ISO_SMILES>
CC1=CC=C(O1)C2=CC3=CC=CC=C3N2

> <PUBCHEM_CACTVS_TPSA>
28.9

> <PUBCHEM_MONOISOTOPIC_WEIGHT>
197.084064

> <PUBCHEM_TOTAL_CHARGE>
0

> <PUBCHEM_HEAVY_ATOM_COUNT>
15

> <PUBCHEM_ATOM_DEF_STEREO_COUNT>
0

> <PUBCHEM_ATOM_UDEF_STEREO_COUNT>
0

> <PUBCHEM_BOND_DEF_STEREO_COUNT>
0

> <PUBCHEM_BOND_UDEF_STEREO_COUNT>
0

> <PUBCHEM_ISOTOPIC_ATOM_COUNT>
0

> <PUBCHEM_COMPONENT_COUNT>
1

> <PUBCHEM_CACTVS_TAUTO_COUNT>
1

> <PUBCHEM_COORDINATE_TYPE>
1
5
255

> <PUBCHEM_BONDANNOTATIONS>
1  11  8
1  7  8
10  12  8
11  12  8
13  14  8
2  3  8
2  4  8
3  6  8
4  5  8
4  8  8
5  6  8
5  9  8
7  10  8
8  13  8
9  14  8

$$$$
