16828777
  -OEChem-11301217202D

 35 37  0     0  0  0  0  0  0999 V2000
    4.4487    1.0839    0.0000 O   0  0  0  0  0  0  0  0  0  0  0  0
    3.5827   -0.4161    0.0000 N   0  0  0  0  0  0  0  0  0  0  0  0
    2.0000   -0.7525    0.0000 C   0  0  0  0  0  0  0  0  0  0  0  0
    2.5000   -1.6186    0.0000 C   0  0  0  0  0  0  0  0  0  0  0  0
    2.6691   -0.0094    0.0000 C   0  0  0  0  0  0  0  0  0  0  0  0
    3.4782   -1.4106    0.0000 C   0  0  0  0  0  0  0  0  0  0  0  0
    4.4487    0.0839    0.0000 C   0  0  0  0  0  0  0  0  0  0  0  0
    5.3147   -0.4161    0.0000 C   0  0  0  0  0  0  0  0  0  0  0  0
    6.1808    0.0839    0.0000 C   0  0  0  0  0  0  0  0  0  0  0  0
    7.0468   -0.4161    0.0000 C   0  0  0  0  0  0  0  0  0  0  0  0
    7.9128    0.0839    0.0000 C   0  0  0  0  0  0  0  0  0  0  0  0
    6.1808    1.0839    0.0000 C   0  0  0  0  0  0  0  0  0  0  0  0
    7.9128    1.0839    0.0000 C   0  0  0  0  0  0  0  0  0  0  0  0
    7.0468    1.5839    0.0000 C   0  0  0  0  0  0  0  0  0  0  0  0
    8.8067   -0.4508    0.0000 C   0  0  0  0  0  0  0  0  0  0  0  0
    8.8067    1.6186    0.0000 C   0  0  0  0  0  0  0  0  0  0  0  0
    9.7128    0.0631    0.0000 C   0  0  0  0  0  0  0  0  0  0  0  0
    9.7128    1.1047    0.0000 C   0  0  0  0  0  0  0  0  0  0  0  0
    1.5851   -0.2918    0.0000 H   0  0  0  0  0  0  0  0  0  0  0  0
    1.4984   -1.1170    0.0000 H   0  0  0  0  0  0  0  0  0  0  0  0
    1.9336   -1.8707    0.0000 H   0  0  0  0  0  0  0  0  0  0  0  0
    2.6916   -2.2082    0.0000 H   0  0  0  0  0  0  0  0  0  0  0  0
    2.9791    0.5276    0.0000 H   0  0  0  0  0  0  0  0  0  0  0  0
    2.1675    0.3550    0.0000 H   0  0  0  0  0  0  0  0  0  0  0  0
    3.5430   -2.0272    0.0000 H   0  0  0  0  0  0  0  0  0  0  0  0
    4.0982   -1.4106    0.0000 H   0  0  0  0  0  0  0  0  0  0  0  0
    4.9162   -0.8911    0.0000 H   0  0  0  0  0  0  0  0  0  0  0  0
    5.7133   -0.8911    0.0000 H   0  0  0  0  0  0  0  0  0  0  0  0
    7.0468   -1.0361    0.0000 H   0  0  0  0  0  0  0  0  0  0  0  0
    5.6438    1.3939    0.0000 H   0  0  0  0  0  0  0  0  0  0  0  0
    7.0468    2.2039    0.0000 H   0  0  0  0  0  0  0  0  0  0  0  0
    8.7996   -1.0707    0.0000 H   0  0  0  0  0  0  0  0  0  0  0  0
    8.7996    2.2385    0.0000 H   0  0  0  0  0  0  0  0  0  0  0  0
   10.2485   -0.2490    0.0000 H   0  0  0  0  0  0  0  0  0  0  0  0
   10.2485    1.4168    0.0000 H   0  0  0  0  0  0  0  0  0  0  0  0
  1  7  2  0  0  0  0
  2  5  1  0  0  0  0
  2  6  1  0  0  0  0
  2  7  1  0  0  0  0
  3  4  1  0  0  0  0
  3  5  1  0  0  0  0
  3 19  1  0  0  0  0
  3 20  1  0  0  0  0
  4  6  1  0  0  0  0
  4 21  1  0  0  0  0
  4 22  1  0  0  0  0
  5 23  1  0  0  0  0
  5 24  1  0  0  0  0
  6 25  1  0  0  0  0
  6 26  1  0  0  0  0
  7  8  1  0  0  0  0
  8  9  1  0  0  0  0
  8 27  1  0  0  0  0
  8 28  1  0  0  0  0
  9 10  2  0  0  0  0
  9 12  1  0  0  0  0
 10 11  1  0  0  0  0
 10 29  1  0  0  0  0
 11 13  1  0  0  0  0
 11 15  2  0  0  0  0
 12 14  2  0  0  0  0
 12 30  1  0  0  0  0
 13 14  1  0  0  0  0
 13 16  2  0  0  0  0
 14 31  1  0  0  0  0
 15 17  1  0  0  0  0
 15 32  1  0  0  0  0
 16 18  1  0  0  0  0
 16 33  1  0  0  0  0
 17 18  2  0  0  0  0
 17 34  1  0  0  0  0
 18 35  1  0  0  0  0
M  END
> <PUBCHEM_COMPOUND_CID>
16828777

> <PUBCHEM_COMPOUND_CANONICALIZED>
1

> <PUBCHEM_CACTVS_COMPLEXITY>
296

> <PUBCHEM_CACTVS_HBOND_ACCEPTOR>
1

> <PUBCHEM_CACTVS_HBOND_DONOR>
0

> <PUBCHEM_CACTVS_ROTATABLE_BOND>
2

> <PUBCHEM_CACTVS_SUBSKEYS>
AAADceB6IAAAAAAAAAAAAAAAAAAAAWAAAAAwYAAAAAAAAADBUAAAHgAAAAAADADBmAQwAMMAAACIAiFSEAACAAAgAAAIiAEIAIgIIDKAlRGEIAAghgCIiAcYiMCOwAACAAAQAACAAAQAACAAAAAAAAAAAA==

> <PUBCHEM_IUPAC_OPENEYE_NAME>
2-(2-naphthyl)-1-pyrrolidin-1-yl-ethanone

> <PUBCHEM_IUPAC_CAS_NAME>
2-(2-naphthalenyl)-1-(1-pyrrolidinyl)ethanone

> <PUBCHEM_IUPAC_NAME>
2-naphthalen-2-yl-1-pyrrolidin-1-ylethanone

> <PUBCHEM_IUPAC_SYSTEMATIC_NAME>
2-naphthalen-2-yl-1-pyrrolidin-1-yl-ethanone

> <PUBCHEM_IUPAC_TRADITIONAL_NAME>
2-(2-naphthyl)-1-pyrrolidino-ethanone

> <PUBCHEM_IUPAC_INCHI>
InChI=1S/C16H17NO/c18-16(17-9-3-4-10-17)12-13-7-8-14-5-1-2-6-15(14)11-13/h1-2,5-8,11H,3-4,9-10,12H2

> <PUBCHEM_IUPAC_INCHIKEY>
YDIKPYUWADCKOF-UHFFFAOYSA-N

> <PUBCHEM_XLOGP3>
3.2

> <PUBCHEM_EXACT_MASS>
239.131014

> <PUBCHEM_MOLECULAR_FORMULA>
C16H17NO

> <PUBCHEM_MOLECULAR_WEIGHT>
239.31228

> <PUBCHEM_OPENEYE_CAN_SMILES>
C1CCN(C1)C(=O)CC2=CC3=CC=CC=C3C=C2

> <PUBCHEM_OPENEYE_ISO_SMILES>
C1CCN(C1)C(=O)CC2=CC3=CC=CC=C3C=C2

> <PUBCHEM_CACTVS_TPSA>
20.3

> <PUBCHEM_MONOISOTOPIC_WEIGHT>
239.131014

> <PUBCHEM_TOTAL_CHARGE>
0

> <PUBCHEM_HEAVY_ATOM_COUNT>
18

> <PUBCHEM_ATOM_DEF_STEREO_COUNT>
0

> <PUBCHEM_ATOM_UDEF_STEREO_COUNT>
0

> <PUBCHEM_BOND_DEF_STEREO_COUNT>
0

> <PUBCHEM_BOND_UDEF_STEREO_COUNT>
0

> <PUBCHEM_ISOTOPIC_ATOM_COUNT>
0

> <PUBCHEM_COMPONENT_COUNT>
1

> <PUBCHEM_CACTVS_TAUTO_COUNT>
1

> <PUBCHEM_COORDINATE_TYPE>
1
5
255

> <PUBCHEM_BONDANNOTATIONS>
10  11  8
11  13  8
11  15  8
12  14  8
13  14  8
13  16  8
15  17  8
16  18  8
17  18  8
9  10  8
9  12  8

$$$$
16849653
  -OEChem-11301217212D

 38 40  0     0  0  0  0  0  0999 V2000
    6.3301    1.2327    0.0000 O   0  0  0  0  0  0  0  0  0  0  0  0
    5.4641   -0.2673    0.0000 N   0  0  0  0  0  0  0  0  0  0  0  0
    8.0622    0.2327    0.0000 C   0  0  0  0  0  0  0  0  0  0  0  0
    7.1962   -0.2673    0.0000 C   0  0  0  0  0  0  0  0  0  0  0  0
    9.7942    0.2327    0.0000 C   0  0  0  0  0  0  0  0  0  0  0  0
    9.7942    1.2327    0.0000 C   0  0  0  0  0  0  0  0  0  0  0  0
    8.9282   -0.2673    0.0000 C   0  0  0  0  0  0  0  0  0  0  0  0
    8.0622    1.2327    0.0000 C   0  0  0  0  0  0  0  0  0  0  0  0
    8.9282    1.7327    0.0000 C   0  0  0  0  0  0  0  0  0  0  0  0
    6.3301    0.2327    0.0000 C   0  0  0  0  0  0  0  0  0  0  0  0
    4.5981    0.2327    0.0000 C   0  0  0  0  0  0  0  0  0  0  0  0
   10.6882   -0.3020    0.0000 C   0  0  0  0  0  0  0  0  0  0  0  0
   10.6882    1.7673    0.0000 C   0  0  0  0  0  0  0  0  0  0  0  0
    3.7320   -0.2673    0.0000 C   0  0  0  0  0  0  0  0  0  0  0  0
   11.5942    0.2119    0.0000 C   0  0  0  0  0  0  0  0  0  0  0  0
   11.5942    1.2535    0.0000 C   0  0  0  0  0  0  0  0  0  0  0  0
    2.8660    0.2327    0.0000 C   0  0  0  0  0  0  0  0  0  0  0  0
    3.7320   -1.2673    0.0000 C   0  0  0  0  0  0  0  0  0  0  0  0
    2.0000   -0.2673    0.0000 C   0  0  0  0  0  0  0  0  0  0  0  0
    2.8660   -1.7673    0.0000 C   0  0  0  0  0  0  0  0  0  0  0  0
    2.0000   -1.2673    0.0000 C   0  0  0  0  0  0  0  0  0  0  0  0
    6.7976   -0.7423    0.0000 H   0  0  0  0  0  0  0  0  0  0  0  0
    7.5947   -0.7423    0.0000 H   0  0  0  0  0  0  0  0  0  0  0  0
    8.9282   -0.8873    0.0000 H   0  0  0  0  0  0  0  0  0  0  0  0
    7.5252    1.5427    0.0000 H   0  0  0  0  0  0  0  0  0  0  0  0
    8.9282    2.3527    0.0000 H   0  0  0  0  0  0  0  0  0  0  0  0
    4.9966    0.7076    0.0000 H   0  0  0  0  0  0  0  0  0  0  0  0
    4.1996    0.7076    0.0000 H   0  0  0  0  0  0  0  0  0  0  0  0
    5.4641   -0.8873    0.0000 H   0  0  0  0  0  0  0  0  0  0  0  0
   10.6810   -0.9220    0.0000 H   0  0  0  0  0  0  0  0  0  0  0  0
   10.6810    2.3873    0.0000 H   0  0  0  0  0  0  0  0  0  0  0  0
   12.1300   -0.1002    0.0000 H   0  0  0  0  0  0  0  0  0  0  0  0
   12.1300    1.5656    0.0000 H   0  0  0  0  0  0  0  0  0  0  0  0
    2.8660    0.8527    0.0000 H   0  0  0  0  0  0  0  0  0  0  0  0
    4.2690   -1.5773    0.0000 H   0  0  0  0  0  0  0  0  0  0  0  0
    1.4631    0.0427    0.0000 H   0  0  0  0  0  0  0  0  0  0  0  0
    2.8660   -2.3873    0.0000 H   0  0  0  0  0  0  0  0  0  0  0  0
    1.4631   -1.5773    0.0000 H   0  0  0  0  0  0  0  0  0  0  0  0
  1 10  2  0  0  0  0
  2 10  1  0  0  0  0
  2 11  1  0  0  0  0
  2 29  1  0  0  0  0
  3  4  1  0  0  0  0
  3  7  2  0  0  0  0
  3  8  1  0  0  0  0
  4 10  1  0  0  0  0
  4 22  1  0  0  0  0
  4 23  1  0  0  0  0
  5  6  1  0  0  0  0
  5  7  1  0  0  0  0
  5 12  2  0  0  0  0
  6  9  1  0  0  0  0
  6 13  2  0  0  0  0
  7 24  1  0  0  0  0
  8  9  2  0  0  0  0
  8 25  1  0  0  0  0
  9 26  1  0  0  0  0
 11 14  1  0  0  0  0
 11 27  1  0  0  0  0
 11 28  1  0  0  0  0
 12 15  1  0  0  0  0
 12 30  1  0  0  0  0
 13 16  1  0  0  0  0
 13 31  1  0  0  0  0
 14 17  2  0  0  0  0
 14 18  1  0  0  0  0
 15 16  2  0  0  0  0
 15 32  1  0  0  0  0
 16 33  1  0  0  0  0
 17 19  1  0  0  0  0
 17 34  1  0  0  0  0
 18 20  2  0  0  0  0
 18 35  1  0  0  0  0
 19 21  2  0  0  0  0
 19 36  1  0  0  0  0
 20 21  1  0  0  0  0
 20 37  1  0  0  0  0
 21 38  1  0  0  0  0
M  END
> <PUBCHEM_COMPOUND_CID>
16849653

> <PUBCHEM_COMPOUND_CANONICALIZED>
1

> <PUBCHEM_CACTVS_COMPLEXITY>
335

> <PUBCHEM_CACTVS_HBOND_ACCEPTOR>
1

> <PUBCHEM_CACTVS_HBOND_DONOR>
1

> <PUBCHEM_CACTVS_ROTATABLE_BOND>
4

> <PUBCHEM_CACTVS_SUBSKEYS>
AAADceB6IAAAAAAAAAAAAAAAAAAAAAAAAAAwYMAAAAAAAADBVAAAHgAQAAAADADBmAQwAMLAAACIAiFSEACCAAAgAAAIiIEIBIgIIDKAlRGEIAhglgCIiAcYiMCOwAACAAAQAACAAAQAACAAAAAAAAAAAA==

> <PUBCHEM_IUPAC_OPENEYE_NAME>
N-benzyl-2-(2-naphthyl)acetamide

> <PUBCHEM_IUPAC_CAS_NAME>
2-(2-naphthalenyl)-N-(phenylmethyl)acetamide

> <PUBCHEM_IUPAC_NAME>
N-benzyl-2-naphthalen-2-ylacetamide

> <PUBCHEM_IUPAC_SYSTEMATIC_NAME>
2-naphthalen-2-yl-N-(phenylmethyl)ethanamide

> <PUBCHEM_IUPAC_TRADITIONAL_NAME>
N-benzyl-2-(2-naphthyl)acetamide

> <PUBCHEM_IUPAC_INCHI>
InChI=1S/C19H17NO/c21-19(20-14-15-6-2-1-3-7-15)13-16-10-11-17-8-4-5-9-18(17)12-16/h1-12H,13-14H2,(H,20,21)

> <PUBCHEM_IUPAC_INCHIKEY>
YYHJVNAVKFTQGE-UHFFFAOYSA-N

> <PUBCHEM_XLOGP3>
4.1

> <PUBCHEM_EXACT_MASS>
275.131014

> <PUBCHEM_MOLECULAR_FORMULA>
C19H17NO

> <PUBCHEM_MOLECULAR_WEIGHT>
275.34438

> <PUBCHEM_OPENEYE_CAN_SMILES>
C1=CC=C(C=C1)CNC(=O)CC2=CC3=CC=CC=C3C=C2

> <PUBCHEM_OPENEYE_ISO_SMILES>
C1=CC=C(C=C1)CNC(=O)CC2=CC3=CC=CC=C3C=C2

> <PUBCHEM_CACTVS_TPSA>
29.1

> <PUBCHEM_MONOISOTOPIC_WEIGHT>
275.131014

> <PUBCHEM_TOTAL_CHARGE>
0

> <PUBCHEM_HEAVY_ATOM_COUNT>
21

> <PUBCHEM_ATOM_DEF_STEREO_COUNT>
0

> <PUBCHEM_ATOM_UDEF_STEREO_COUNT>
0

> <PUBCHEM_BOND_DEF_STEREO_COUNT>
0

> <PUBCHEM_BOND_UDEF_STEREO_COUNT>
0

> <PUBCHEM_ISOTOPIC_ATOM_COUNT>
0

> <PUBCHEM_COMPONENT_COUNT>
1

> <PUBCHEM_CACTVS_TAUTO_COUNT>
2

> <PUBCHEM_COORDINATE_TYPE>
1
5
255

> <PUBCHEM_BONDANNOTATIONS>
12  15  8
13  16  8
14  17  8
14  18  8
15  16  8
17  19  8
18  20  8
19  21  8
20  21  8
3  7  8
3  8  8
5  12  8
5  6  8
5  7  8
6  13  8
6  9  8
8  9  8

$$$$
16849669
  -OEChem-11301217212D

 41 43  0     0  0  0  0  0  0999 V2000
    6.3301    0.3100    0.0000 O   0  0  0  0  0  0  0  0  0  0  0  0
    5.4641   -1.1900    0.0000 N   0  0  0  0  0  0  0  0  0  0  0  0
    8.0622   -0.6900    0.0000 C   0  0  0  0  0  0  0  0  0  0  0  0
    7.1962   -1.1900    0.0000 C   0  0  0  0  0  0  0  0  0  0  0  0
    9.7942   -0.6900    0.0000 C   0  0  0  0  0  0  0  0  0  0  0  0
    9.7942    0.3100    0.0000 C   0  0  0  0  0  0  0  0  0  0  0  0
    8.9282   -1.1900    0.0000 C   0  0  0  0  0  0  0  0  0  0  0  0
    4.5981   -0.6900    0.0000 C   0  0  0  0  0  0  0  0  0  0  0  0
    8.0622    0.3100    0.0000 C   0  0  0  0  0  0  0  0  0  0  0  0
    8.9282    0.8100    0.0000 C   0  0  0  0  0  0  0  0  0  0  0  0
    6.3301   -0.6900    0.0000 C   0  0  0  0  0  0  0  0  0  0  0  0
    2.8660   -0.6900    0.0000 C   0  0  0  0  0  0  0  0  0  0  0  0
    3.7320    0.8100    0.0000 C   0  0  0  0  0  0  0  0  0  0  0  0
    4.5981    0.3100    0.0000 C   0  0  0  0  0  0  0  0  0  0  0  0
    3.7320   -1.1900    0.0000 C   0  0  0  0  0  0  0  0  0  0  0  0
   10.6882   -1.2247    0.0000 C   0  0  0  0  0  0  0  0  0  0  0  0
    2.8660    0.3100    0.0000 C   0  0  0  0  0  0  0  0  0  0  0  0
   10.6882    0.8447    0.0000 C   0  0  0  0  0  0  0  0  0  0  0  0
   11.5942   -0.7108    0.0000 C   0  0  0  0  0  0  0  0  0  0  0  0
   11.5942    0.3308    0.0000 C   0  0  0  0  0  0  0  0  0  0  0  0
    2.0000   -1.1900    0.0000 C   0  0  0  0  0  0  0  0  0  0  0  0
    3.7320    1.8100    0.0000 C   0  0  0  0  0  0  0  0  0  0  0  0
    6.7976   -1.6650    0.0000 H   0  0  0  0  0  0  0  0  0  0  0  0
    7.5947   -1.6650    0.0000 H   0  0  0  0  0  0  0  0  0  0  0  0
    8.9282   -1.8100    0.0000 H   0  0  0  0  0  0  0  0  0  0  0  0
    7.5252    0.6200    0.0000 H   0  0  0  0  0  0  0  0  0  0  0  0
    8.9282    1.4300    0.0000 H   0  0  0  0  0  0  0  0  0  0  0  0
    5.4641   -1.8100    0.0000 H   0  0  0  0  0  0  0  0  0  0  0  0
    5.1350    0.6200    0.0000 H   0  0  0  0  0  0  0  0  0  0  0  0
    3.7320   -1.8100    0.0000 H   0  0  0  0  0  0  0  0  0  0  0  0
   10.6810   -1.8446    0.0000 H   0  0  0  0  0  0  0  0  0  0  0  0
    2.3291    0.6200    0.0000 H   0  0  0  0  0  0  0  0  0  0  0  0
   10.6810    1.4646    0.0000 H   0  0  0  0  0  0  0  0  0  0  0  0
   12.1300   -1.0229    0.0000 H   0  0  0  0  0  0  0  0  0  0  0  0
   12.1300    0.6429    0.0000 H   0  0  0  0  0  0  0  0  0  0  0  0
    1.6900   -0.6531    0.0000 H   0  0  0  0  0  0  0  0  0  0  0  0
    1.4631   -1.5000    0.0000 H   0  0  0  0  0  0  0  0  0  0  0  0
    2.3100   -1.7269    0.0000 H   0  0  0  0  0  0  0  0  0  0  0  0
    4.3520    1.8100    0.0000 H   0  0  0  0  0  0  0  0  0  0  0  0
    3.7320    2.4300    0.0000 H   0  0  0  0  0  0  0  0  0  0  0  0
    3.1120    1.8100    0.0000 H   0  0  0  0  0  0  0  0  0  0  0  0
  1 11  2  0  0  0  0
  2  8  1  0  0  0  0
  2 11  1  0  0  0  0
  2 28  1  0  0  0  0
  3  4  1  0  0  0  0
  3  7  2  0  0  0  0
  3  9  1  0  0  0  0
  4 11  1  0  0  0  0
  4 23  1  0  0  0  0
  4 24  1  0  0  0  0
  5  6  1  0  0  0  0
  5  7  1  0  0  0  0
  5 16  2  0  0  0  0
  6 10  1  0  0  0  0
  6 18  2  0  0  0  0
  7 25  1  0  0  0  0
  8 14  2  0  0  0  0
  8 15  1  0  0  0  0
  9 10  2  0  0  0  0
  9 26  1  0  0  0  0
 10 27  1  0  0  0  0
 12 15  2  0  0  0  0
 12 17  1  0  0  0  0
 12 21  1  0  0  0  0
 13 14  1  0  0  0  0
 13 17  2  0  0  0  0
 13 22  1  0  0  0  0
 14 29  1  0  0  0  0
 15 30  1  0  0  0  0
 16 19  1  0  0  0  0
 16 31  1  0  0  0  0
 17 32  1  0  0  0  0
 18 20  1  0  0  0  0
 18 33  1  0  0  0  0
 19 20  2  0  0  0  0
 19 34  1  0  0  0  0
 20 35  1  0  0  0  0
 21 36  1  0  0  0  0
 21 37  1  0  0  0  0
 21 38  1  0  0  0  0
 22 39  1  0  0  0  0
 22 40  1  0  0  0  0
 22 41  1  0  0  0  0
M  END
> <PUBCHEM_COMPOUND_CID>
16849669

> <PUBCHEM_COMPOUND_CANONICALIZED>
1

> <PUBCHEM_CACTVS_COMPLEXITY>
370

> <PUBCHEM_CACTVS_HBOND_ACCEPTOR>
1

> <PUBCHEM_CACTVS_HBOND_DONOR>
1

> <PUBCHEM_CACTVS_ROTATABLE_BOND>
3

> <PUBCHEM_CACTVS_SUBSKEYS>
AAADceB6IAAAAAAAAAAAAAAAAAAAAAAAAAAwYMAAAAAAAADBVAAAHgAQAAAADAiBmAAywMLAAACIAiVSUACCAAAhAgAIiAEAZIgIIDLAlZGEIAhglADIyAcYiMCOwAACQAAQAACAAASAACAAAAAAAAAAAA==

> <PUBCHEM_IUPAC_OPENEYE_NAME>
N-(3,5-dimethylphenyl)-2-(2-naphthyl)acetamide

> <PUBCHEM_IUPAC_CAS_NAME>
N-(3,5-dimethylphenyl)-2-(2-naphthalenyl)acetamide

> <PUBCHEM_IUPAC_NAME>
N-(3,5-dimethylphenyl)-2-naphthalen-2-ylacetamide

> <PUBCHEM_IUPAC_SYSTEMATIC_NAME>
N-(3,5-dimethylphenyl)-2-naphthalen-2-yl-ethanamide

> <PUBCHEM_IUPAC_TRADITIONAL_NAME>
N-(3,5-dimethylphenyl)-2-(2-naphthyl)acetamide

> <PUBCHEM_IUPAC_INCHI>
InChI=1S/C20H19NO/c1-14-9-15(2)11-19(10-14)21-20(22)13-16-7-8-17-5-3-4-6-18(17)12-16/h3-12H,13H2,1-2H3,(H,21,22)

> <PUBCHEM_IUPAC_INCHIKEY>
JOSWMWQZKGBHAA-UHFFFAOYSA-N

> <PUBCHEM_XLOGP3>
4.8

> <PUBCHEM_EXACT_MASS>
289.146664

> <PUBCHEM_MOLECULAR_FORMULA>
C20H19NO

> <PUBCHEM_MOLECULAR_WEIGHT>
289.37096

> <PUBCHEM_OPENEYE_CAN_SMILES>
CC1=CC(=CC(=C1)NC(=O)CC2=CC3=CC=CC=C3C=C2)C

> <PUBCHEM_OPENEYE_ISO_SMILES>
CC1=CC(=CC(=C1)NC(=O)CC2=CC3=CC=CC=C3C=C2)C

> <PUBCHEM_CACTVS_TPSA>
29.1

> <PUBCHEM_MONOISOTOPIC_WEIGHT>
289.146664

> <PUBCHEM_TOTAL_CHARGE>
0

> <PUBCHEM_HEAVY_ATOM_COUNT>
22

> <PUBCHEM_ATOM_DEF_STEREO_COUNT>
0

> <PUBCHEM_ATOM_UDEF_STEREO_COUNT>
0

> <PUBCHEM_BOND_DEF_STEREO_COUNT>
0

> <PUBCHEM_BOND_UDEF_STEREO_COUNT>
0

> <PUBCHEM_ISOTOPIC_ATOM_COUNT>
0

> <PUBCHEM_COMPONENT_COUNT>
1

> <PUBCHEM_CACTVS_TAUTO_COUNT>
3

> <PUBCHEM_COORDINATE_TYPE>
1
5
255

> <PUBCHEM_BONDANNOTATIONS>
12  15  8
12  17  8
13  14  8
13  17  8
16  19  8
18  20  8
19  20  8
3  7  8
3  9  8
5  16  8
5  6  8
5  7  8
6  10  8
6  18  8
8  14  8
8  15  8
9  10  8

$$$$
