33927375
  -OEChem-11301217452D

 47 48  0     0  0  0  0  0  0999 V2000
    7.1962    2.5490    0.0000 O   0  0  0  0  0  0  0  0  0  0  0  0
    4.5981    0.0490    0.0000 N   0  3  0  0  0  0  0  0  0  0  0  0
    7.1962   -0.4510    0.0000 N   0  0  0  0  0  0  0  0  0  0  0  0
    6.3301    1.0490    0.0000 N   0  0  0  0  0  0  0  0  0  0  0  0
    3.7321    0.5490    0.0000 C   0  0  0  0  0  0  0  0  0  0  0  0
    4.0981   -0.8170    0.0000 C   0  0  0  0  0  0  0  0  0  0  0  0
    5.4641   -0.4510    0.0000 C   0  0  0  0  0  0  0  0  0  0  0  0
    2.8660    0.0490    0.0000 C   0  0  0  0  0  0  0  0  0  0  0  0
    4.5981   -1.6830    0.0000 C   0  0  0  0  0  0  0  0  0  0  0  0
    6.3301    0.0490    0.0000 C   0  0  0  0  0  0  0  0  0  0  0  0
    2.0000    0.5490    0.0000 C   0  0  0  0  0  0  0  0  0  0  0  0
    2.8660   -0.9510    0.0000 C   0  0  0  0  0  0  0  0  0  0  0  0
    4.0981   -2.5490    0.0000 C   0  0  0  0  0  0  0  0  0  0  0  0
    5.5981   -1.6830    0.0000 C   0  0  0  0  0  0  0  0  0  0  0  0
    8.0622    0.0490    0.0000 C   0  0  0  0  0  0  0  0  0  0  0  0
    8.0622    1.0490    0.0000 C   0  0  0  0  0  0  0  0  0  0  0  0
    7.1962    1.5490    0.0000 C   0  0  0  0  0  0  0  0  0  0  0  0
    8.9561   -0.4856    0.0000 C   0  0  0  0  0  0  0  0  0  0  0  0
    8.9561    1.5837    0.0000 C   0  0  0  0  0  0  0  0  0  0  0  0
    9.8622    0.0282    0.0000 C   0  0  0  0  0  0  0  0  0  0  0  0
    9.8622    1.0699    0.0000 C   0  0  0  0  0  0  0  0  0  0  0  0
    4.9081    0.5860    0.0000 H   0  0  0  0  0  0  0  0  0  0  0  0
    4.1306    1.0240    0.0000 H   0  0  0  0  0  0  0  0  0  0  0  0
    3.3335    1.0240    0.0000 H   0  0  0  0  0  0  0  0  0  0  0  0
    3.6231   -0.4185    0.0000 H   0  0  0  0  0  0  0  0  0  0  0  0
    3.6231   -1.2155    0.0000 H   0  0  0  0  0  0  0  0  0  0  0  0
    5.0656   -0.9259    0.0000 H   0  0  0  0  0  0  0  0  0  0  0  0
    5.8626   -0.9259    0.0000 H   0  0  0  0  0  0  0  0  0  0  0  0
    2.8660    0.6690    0.0000 H   0  0  0  0  0  0  0  0  0  0  0  0
    3.9781   -1.6830    0.0000 H   0  0  0  0  0  0  0  0  0  0  0  0
    2.3100    1.0860    0.0000 H   0  0  0  0  0  0  0  0  0  0  0  0
    1.4631    0.8590    0.0000 H   0  0  0  0  0  0  0  0  0  0  0  0
    1.6900    0.0121    0.0000 H   0  0  0  0  0  0  0  0  0  0  0  0
    2.2460   -0.9510    0.0000 H   0  0  0  0  0  0  0  0  0  0  0  0
    2.8660   -1.5710    0.0000 H   0  0  0  0  0  0  0  0  0  0  0  0
    3.4860   -0.9510    0.0000 H   0  0  0  0  0  0  0  0  0  0  0  0
    3.5611   -2.2390    0.0000 H   0  0  0  0  0  0  0  0  0  0  0  0
    3.7881   -3.0860    0.0000 H   0  0  0  0  0  0  0  0  0  0  0  0
    4.6350   -2.8590    0.0000 H   0  0  0  0  0  0  0  0  0  0  0  0
    5.5981   -2.3030    0.0000 H   0  0  0  0  0  0  0  0  0  0  0  0
    6.2181   -1.6830    0.0000 H   0  0  0  0  0  0  0  0  0  0  0  0
    5.5981   -1.0630    0.0000 H   0  0  0  0  0  0  0  0  0  0  0  0
    7.1962   -1.0710    0.0000 H   0  0  0  0  0  0  0  0  0  0  0  0
    8.9490   -1.1056    0.0000 H   0  0  0  0  0  0  0  0  0  0  0  0
    8.9490    2.2037    0.0000 H   0  0  0  0  0  0  0  0  0  0  0  0
   10.3979   -0.2838    0.0000 H   0  0  0  0  0  0  0  0  0  0  0  0
   10.3979    1.3819    0.0000 H   0  0  0  0  0  0  0  0  0  0  0  0
  1 17  2  0  0  0  0
  2  5  1  0  0  0  0
  2  6  1  0  0  0  0
  2  7  1  0  0  0  0
  2 22  1  0  0  0  0
  3 10  1  0  0  0  0
  3 15  1  0  0  0  0
  3 43  1  0  0  0  0
  4 10  2  0  0  0  0
  4 17  1  0  0  0  0
  5  8  1  0  0  0  0
  5 23  1  0  0  0  0
  5 24  1  0  0  0  0
  6  9  1  0  0  0  0
  6 25  1  0  0  0  0
  6 26  1  0  0  0  0
  7 10  1  0  0  0  0
  7 27  1  0  0  0  0
  7 28  1  0  0  0  0
  8 11  1  0  0  0  0
  8 12  1  0  0  0  0
  8 29  1  0  0  0  0
  9 13  1  0  0  0  0
  9 14  1  0  0  0  0
  9 30  1  0  0  0  0
 11 31  1  0  0  0  0
 11 32  1  0  0  0  0
 11 33  1  0  0  0  0
 12 34  1  0  0  0  0
 12 35  1  0  0  0  0
 12 36  1  0  0  0  0
 13 37  1  0  0  0  0
 13 38  1  0  0  0  0
 13 39  1  0  0  0  0
 14 40  1  0  0  0  0
 14 41  1  0  0  0  0
 14 42  1  0  0  0  0
 15 16  1  0  0  0  0
 15 18  2  0  0  0  0
 16 17  1  0  0  0  0
 16 19  2  0  0  0  0
 18 20  1  0  0  0  0
 18 44  1  0  0  0  0
 19 21  1  0  0  0  0
 19 45  1  0  0  0  0
 20 21  2  0  0  0  0
 20 46  1  0  0  0  0
 21 47  1  0  0  0  0
M  CHG  1   2   1
M  END
> <PUBCHEM_COMPOUND_CID>
33927375

> <PUBCHEM_COMPOUND_CANONICALIZED>
1

> <PUBCHEM_CACTVS_COMPLEXITY>
380

> <PUBCHEM_CACTVS_HBOND_ACCEPTOR>
1

> <PUBCHEM_CACTVS_HBOND_DONOR>
2

> <PUBCHEM_CACTVS_ROTATABLE_BOND>
6

> <PUBCHEM_CACTVS_SUBSKEYS>
AAADceB7IAAAAAAAAAAAAAAAAAAAAAAAAAAwQAAAAAAAAACBAAAAHgAQAAAADQjBmAQzwIPAAACoAidydACCAAElAgAJiIEYZMgIYDrA3ZGUIYhgkADIyccYiACOAAAAAAACAAAAAAAAAAQAAAAAAAAAAA==

> <PUBCHEM_IUPAC_OPENEYE_NAME>
diisobutyl-[(4-oxo-1H-quinazolin-2-yl)methyl]ammonium

> <PUBCHEM_IUPAC_CAS_NAME>
bis(2-methylpropyl)-[(4-oxo-1H-quinazolin-2-yl)methyl]ammonium

> <PUBCHEM_IUPAC_NAME>
bis(2-methylpropyl)-[(4-oxo-1H-quinazolin-2-yl)methyl]azanium

> <PUBCHEM_IUPAC_SYSTEMATIC_NAME>
bis(2-methylpropyl)-[(4-oxidanylidene-1H-quinazolin-2-yl)methyl]azanium

> <PUBCHEM_IUPAC_TRADITIONAL_NAME>
diisobutyl-[(4-keto-1H-quinazolin-2-yl)methyl]ammonium

> <PUBCHEM_IUPAC_INCHI>
InChI=1S/C17H25N3O/c1-12(2)9-20(10-13(3)4)11-16-18-15-8-6-5-7-14(15)17(21)19-16/h5-8,12-13H,9-11H2,1-4H3,(H,18,19,21)/p+1

> <PUBCHEM_IUPAC_INCHIKEY>
LMQVFEGFPTWPSG-UHFFFAOYSA-O

> <PUBCHEM_XLOGP3>
3.9

> <PUBCHEM_EXACT_MASS>
288.207587

> <PUBCHEM_MOLECULAR_FORMULA>
C17H26N3O+

> <PUBCHEM_MOLECULAR_WEIGHT>
288.40784

> <PUBCHEM_OPENEYE_CAN_SMILES>
CC(C)C[NH+](CC1=NC(=O)C2=CC=CC=C2N1)CC(C)C

> <PUBCHEM_OPENEYE_ISO_SMILES>
CC(C)C[NH+](CC1=NC(=O)C2=CC=CC=C2N1)CC(C)C

> <PUBCHEM_CACTVS_TPSA>
45.9

> <PUBCHEM_MONOISOTOPIC_WEIGHT>
288.207587

> <PUBCHEM_TOTAL_CHARGE>
1

> <PUBCHEM_HEAVY_ATOM_COUNT>
21

> <PUBCHEM_ATOM_DEF_STEREO_COUNT>
0

> <PUBCHEM_ATOM_UDEF_STEREO_COUNT>
0

> <PUBCHEM_BOND_DEF_STEREO_COUNT>
0

> <PUBCHEM_BOND_UDEF_STEREO_COUNT>
0

> <PUBCHEM_ISOTOPIC_ATOM_COUNT>
0

> <PUBCHEM_COMPONENT_COUNT>
1

> <PUBCHEM_CACTVS_TAUTO_COUNT>
3

> <PUBCHEM_COORDINATE_TYPE>
1
5
255

> <PUBCHEM_BONDANNOTATIONS>
15  16  8
15  18  8
16  17  8
16  19  8
18  20  8
19  21  8
20  21  8
3  10  8
3  15  8
4  10  8
4  17  8

$$$$
