7855572
  -OEChem-11301217032D

 21 21  0     1  0  0  0  0  0999 V2000
    3.7320    1.4815    0.0000 N   0  3  0  0  0  0  0  0  0  0  0  0
    2.8660    0.9815    0.0000 C   0  0  2  0  0  0  0  0  0  0  0  0
    2.8660   -0.0185    0.0000 C   0  0  0  0  0  0  0  0  0  0  0  0
    2.0000    1.4815    0.0000 C   0  0  0  0  0  0  0  0  0  0  0  0
    2.0000   -0.5185    0.0000 C   0  0  0  0  0  0  0  0  0  0  0  0
    3.7320   -0.5185    0.0000 C   0  0  0  0  0  0  0  0  0  0  0  0
    2.0000   -1.5185    0.0000 C   0  0  0  0  0  0  0  0  0  0  0  0
    3.7320   -1.5185    0.0000 C   0  0  0  0  0  0  0  0  0  0  0  0
    2.8660   -2.0185    0.0000 C   0  0  0  0  0  0  0  0  0  0  0  0
    2.8660    1.6015    0.0000 H   0  0  0  0  0  0  0  0  0  0  0  0
    4.2690    1.7915    0.0000 H   0  0  0  0  0  0  0  0  0  0  0  0
    3.4220    2.0185    0.0000 H   0  0  0  0  0  0  0  0  0  0  0  0
    4.0420    0.9446    0.0000 H   0  0  0  0  0  0  0  0  0  0  0  0
    2.3100    2.0185    0.0000 H   0  0  0  0  0  0  0  0  0  0  0  0
    1.4631    1.7915    0.0000 H   0  0  0  0  0  0  0  0  0  0  0  0
    1.6900    0.9446    0.0000 H   0  0  0  0  0  0  0  0  0  0  0  0
    1.4631   -0.2085    0.0000 H   0  0  0  0  0  0  0  0  0  0  0  0
    4.2690   -0.2085    0.0000 H   0  0  0  0  0  0  0  0  0  0  0  0
    1.4631   -1.8285    0.0000 H   0  0  0  0  0  0  0  0  0  0  0  0
    4.2690   -1.8285    0.0000 H   0  0  0  0  0  0  0  0  0  0  0  0
    2.8660   -2.6385    0.0000 H   0  0  0  0  0  0  0  0  0  0  0  0
  2  1  1  6  0  0  0
  1 11  1  0  0  0  0
  1 12  1  0  0  0  0
  1 13  1  0  0  0  0
  2  3  1  0  0  0  0
  2  4  1  0  0  0  0
  2 10  1  0  0  0  0
  3  5  2  0  0  0  0
  3  6  1  0  0  0  0
  4 14  1  0  0  0  0
  4 15  1  0  0  0  0
  4 16  1  0  0  0  0
  5  7  1  0  0  0  0
  5 17  1  0  0  0  0
  6  8  2  0  0  0  0
  6 18  1  0  0  0  0
  7  9  2  0  0  0  0
  7 19  1  0  0  0  0
  8  9  1  0  0  0  0
  8 20  1  0  0  0  0
  9 21  1  0  0  0  0
M  CHG  1   1   1
M  END
> <PUBCHEM_COMPOUND_CID>
7855572

> <PUBCHEM_COMPOUND_CANONICALIZED>
1

> <PUBCHEM_CACTVS_COMPLEXITY>
74.6

> <PUBCHEM_CACTVS_HBOND_ACCEPTOR>
0

> <PUBCHEM_CACTVS_HBOND_DONOR>
1

> <PUBCHEM_CACTVS_ROTATABLE_BOND>
1

> <PUBCHEM_CACTVS_SUBSKEYS>
AAADccByAAAAAAAAAAAAAAAAAAAAAAAAAAAwAAAAAAAAAAABAAAAHAAQAAAADCjBGAQyAIBAAACAAiBCAACCAAAgAAAIiIAABIgIICKAkRGAIABgkAAIiAcQgIAOAAAAAAAAAAAAAAAAAAAAAAAAAAAAAA==

> <PUBCHEM_IUPAC_OPENEYE_NAME>
[(1S)-1-phenylethyl]ammonium

> <PUBCHEM_IUPAC_CAS_NAME>
[(1S)-1-phenylethyl]ammonium

> <PUBCHEM_IUPAC_NAME>
[(1S)-1-phenylethyl]azanium

> <PUBCHEM_IUPAC_SYSTEMATIC_NAME>
[(1S)-1-phenylethyl]azanium

> <PUBCHEM_IUPAC_TRADITIONAL_NAME>
[(1S)-1-phenylethyl]ammonium

> <PUBCHEM_IUPAC_INCHI>
InChI=1S/C8H11N/c1-7(9)8-5-3-2-4-6-8/h2-7H,9H2,1H3/p+1/t7-/m0/s1

> <PUBCHEM_IUPAC_INCHIKEY>
RQEUFEKYXDPUSK-ZETCQYMHSA-O

> <PUBCHEM_XLOGP3>
1.2

> <PUBCHEM_EXACT_MASS>
122.096974

> <PUBCHEM_MOLECULAR_FORMULA>
C8H12N+

> <PUBCHEM_MOLECULAR_WEIGHT>
122.18758

> <PUBCHEM_OPENEYE_CAN_SMILES>
CC(C1=CC=CC=C1)[NH3+]

> <PUBCHEM_OPENEYE_ISO_SMILES>
C[C@@H](C1=CC=CC=C1)[NH3+]

> <PUBCHEM_CACTVS_TPSA>
27.6

> <PUBCHEM_MONOISOTOPIC_WEIGHT>
122.096974

> <PUBCHEM_TOTAL_CHARGE>
1

> <PUBCHEM_HEAVY_ATOM_COUNT>
9

> <PUBCHEM_ATOM_DEF_STEREO_COUNT>
1

> <PUBCHEM_ATOM_UDEF_STEREO_COUNT>
0

> <PUBCHEM_BOND_DEF_STEREO_COUNT>
0

> <PUBCHEM_BOND_UDEF_STEREO_COUNT>
0

> <PUBCHEM_ISOTOPIC_ATOM_COUNT>
0

> <PUBCHEM_COMPONENT_COUNT>
1

> <PUBCHEM_CACTVS_TAUTO_COUNT>
1

> <PUBCHEM_COORDINATE_TYPE>
1
5
255

> <PUBCHEM_BONDANNOTATIONS>
2  1  6
3  5  8
3  6  8
5  7  8
6  8  8
7  9  8
8  9  8

$$$$
7857630
  -OEChem-11301217042D

 21 21  0     1  0  0  0  0  0999 V2000
    3.7320    1.4815    0.0000 N   0  3  0  0  0  0  0  0  0  0  0  0
    2.8660    0.9815    0.0000 C   0  0  1  0  0  0  0  0  0  0  0  0
    2.8660   -0.0185    0.0000 C   0  0  0  0  0  0  0  0  0  0  0  0
    2.0000    1.4815    0.0000 C   0  0  0  0  0  0  0  0  0  0  0  0
    2.0000   -0.5185    0.0000 C   0  0  0  0  0  0  0  0  0  0  0  0
    3.7320   -0.5185    0.0000 C   0  0  0  0  0  0  0  0  0  0  0  0
    2.0000   -1.5185    0.0000 C   0  0  0  0  0  0  0  0  0  0  0  0
    3.7320   -1.5185    0.0000 C   0  0  0  0  0  0  0  0  0  0  0  0
    2.8660   -2.0185    0.0000 C   0  0  0  0  0  0  0  0  0  0  0  0
    2.8660    1.6015    0.0000 H   0  0  0  0  0  0  0  0  0  0  0  0
    4.2690    1.7915    0.0000 H   0  0  0  0  0  0  0  0  0  0  0  0
    3.4220    2.0185    0.0000 H   0  0  0  0  0  0  0  0  0  0  0  0
    4.0420    0.9446    0.0000 H   0  0  0  0  0  0  0  0  0  0  0  0
    2.3100    2.0185    0.0000 H   0  0  0  0  0  0  0  0  0  0  0  0
    1.4631    1.7915    0.0000 H   0  0  0  0  0  0  0  0  0  0  0  0
    1.6900    0.9446    0.0000 H   0  0  0  0  0  0  0  0  0  0  0  0
    1.4631   -0.2085    0.0000 H   0  0  0  0  0  0  0  0  0  0  0  0
    4.2690   -0.2085    0.0000 H   0  0  0  0  0  0  0  0  0  0  0  0
    1.4631   -1.8285    0.0000 H   0  0  0  0  0  0  0  0  0  0  0  0
    4.2690   -1.8285    0.0000 H   0  0  0  0  0  0  0  0  0  0  0  0
    2.8660   -2.6385    0.0000 H   0  0  0  0  0  0  0  0  0  0  0  0
  2  1  1  1  0  0  0
  1 11  1  0  0  0  0
  1 12  1  0  0  0  0
  1 13  1  0  0  0  0
  2  3  1  0  0  0  0
  2  4  1  0  0  0  0
  2 10  1  0  0  0  0
  3  5  2  0  0  0  0
  3  6  1  0  0  0  0
  4 14  1  0  0  0  0
  4 15  1  0  0  0  0
  4 16  1  0  0  0  0
  5  7  1  0  0  0  0
  5 17  1  0  0  0  0
  6  8  2  0  0  0  0
  6 18  1  0  0  0  0
  7  9  2  0  0  0  0
  7 19  1  0  0  0  0
  8  9  1  0  0  0  0
  8 20  1  0  0  0  0
  9 21  1  0  0  0  0
M  CHG  1   1   1
M  END
> <PUBCHEM_COMPOUND_CID>
7857630

> <PUBCHEM_COMPOUND_CANONICALIZED>
1

> <PUBCHEM_CACTVS_COMPLEXITY>
74.6

> <PUBCHEM_CACTVS_HBOND_ACCEPTOR>
0

> <PUBCHEM_CACTVS_HBOND_DONOR>
1

> <PUBCHEM_CACTVS_ROTATABLE_BOND>
1

> <PUBCHEM_CACTVS_SUBSKEYS>
AAADccByAAAAAAAAAAAAAAAAAAAAAAAAAAAwAAAAAAAAAAABAAAAHAAQAAAADCjBGAQyAIBAAACAAiBCAACCAAAgAAAIiIAABIgIICKAkRGAIABgkAAIiAcQgIAOAAAAAAAAAAAAAAAAAAAAAAAAAAAAAA==

> <PUBCHEM_IUPAC_OPENEYE_NAME>
[(1R)-1-phenylethyl]ammonium

> <PUBCHEM_IUPAC_CAS_NAME>
[(1R)-1-phenylethyl]ammonium

> <PUBCHEM_IUPAC_NAME>
[(1R)-1-phenylethyl]azanium

> <PUBCHEM_IUPAC_SYSTEMATIC_NAME>
[(1R)-1-phenylethyl]azanium

> <PUBCHEM_IUPAC_TRADITIONAL_NAME>
[(1R)-1-phenylethyl]ammonium

> <PUBCHEM_IUPAC_INCHI>
InChI=1S/C8H11N/c1-7(9)8-5-3-2-4-6-8/h2-7H,9H2,1H3/p+1/t7-/m1/s1

> <PUBCHEM_IUPAC_INCHIKEY>
RQEUFEKYXDPUSK-SSDOTTSWSA-O

> <PUBCHEM_XLOGP3>
1.2

> <PUBCHEM_EXACT_MASS>
122.096974

> <PUBCHEM_MOLECULAR_FORMULA>
C8H12N+

> <PUBCHEM_MOLECULAR_WEIGHT>
122.18758

> <PUBCHEM_OPENEYE_CAN_SMILES>
CC(C1=CC=CC=C1)[NH3+]

> <PUBCHEM_OPENEYE_ISO_SMILES>
C[C@H](C1=CC=CC=C1)[NH3+]

> <PUBCHEM_CACTVS_TPSA>
27.6

> <PUBCHEM_MONOISOTOPIC_WEIGHT>
122.096974

> <PUBCHEM_TOTAL_CHARGE>
1

> <PUBCHEM_HEAVY_ATOM_COUNT>
9

> <PUBCHEM_ATOM_DEF_STEREO_COUNT>
1

> <PUBCHEM_ATOM_UDEF_STEREO_COUNT>
0

> <PUBCHEM_BOND_DEF_STEREO_COUNT>
0

> <PUBCHEM_BOND_UDEF_STEREO_COUNT>
0

> <PUBCHEM_ISOTOPIC_ATOM_COUNT>
0

> <PUBCHEM_COMPONENT_COUNT>
1

> <PUBCHEM_CACTVS_TAUTO_COUNT>
1

> <PUBCHEM_COORDINATE_TYPE>
1
5
255

> <PUBCHEM_BONDANNOTATIONS>
2  1  5
3  5  8
3  6  8
5  7  8
6  8  8
7  9  8
8  9  8

$$$$
7858358
  -OEChem-11301217042D

 35 36  0     0  0  0  0  0  0999 V2000
    6.3301    3.3660    0.0000 Cl  0  0  0  0  0  0  0  0  0  0  0  0
    2.0000    1.8660    0.0000 O   0  0  0  0  0  0  0  0  0  0  0  0
    2.8660   -1.6340    0.0000 N   0  3  0  0  0  0  0  0  0  0  0  0
    2.8660    0.3660    0.0000 N   0  0  0  0  0  0  0  0  0  0  0  0
    2.0000   -1.1340    0.0000 C   0  0  0  0  0  0  0  0  0  0  0  0
    3.7320   -1.1340    0.0000 C   0  0  0  0  0  0  0  0  0  0  0  0
    2.0000   -0.1340    0.0000 C   0  0  0  0  0  0  0  0  0  0  0  0
    3.7320   -0.1340    0.0000 C   0  0  0  0  0  0  0  0  0  0  0  0
    2.3660   -2.5000    0.0000 C   0  0  0  0  0  0  0  0  0  0  0  0
    2.8660   -3.3660    0.0000 C   0  0  0  0  0  0  0  0  0  0  0  0
    2.8660    1.3660    0.0000 C   0  0  0  0  0  0  0  0  0  0  0  0
    3.7320    1.8660    0.0000 C   0  0  0  0  0  0  0  0  0  0  0  0
    4.5981    1.3660    0.0000 C   0  0  0  0  0  0  0  0  0  0  0  0
    3.7320    2.8660    0.0000 C   0  0  0  0  0  0  0  0  0  0  0  0
    5.4641    1.8660    0.0000 C   0  0  0  0  0  0  0  0  0  0  0  0
    4.5981    3.3660    0.0000 C   0  0  0  0  0  0  0  0  0  0  0  0
    5.4641    2.8660    0.0000 C   0  0  0  0  0  0  0  0  0  0  0  0
    3.1760   -2.1709    0.0000 H   0  0  0  0  0  0  0  0  0  0  0  0
    1.3894   -1.0263    0.0000 H   0  0  0  0  0  0  0  0  0  0  0  0
    1.7880   -1.7166    0.0000 H   0  0  0  0  0  0  0  0  0  0  0  0
    3.9441   -1.7166    0.0000 H   0  0  0  0  0  0  0  0  0  0  0  0
    4.3426   -1.0263    0.0000 H   0  0  0  0  0  0  0  0  0  0  0  0
    1.7880    0.4486    0.0000 H   0  0  0  0  0  0  0  0  0  0  0  0
    1.3894   -0.2416    0.0000 H   0  0  0  0  0  0  0  0  0  0  0  0
    4.3426   -0.2416    0.0000 H   0  0  0  0  0  0  0  0  0  0  0  0
    3.9441    0.4486    0.0000 H   0  0  0  0  0  0  0  0  0  0  0  0
    1.8911   -2.1015    0.0000 H   0  0  0  0  0  0  0  0  0  0  0  0
    1.8911   -2.8985    0.0000 H   0  0  0  0  0  0  0  0  0  0  0  0
    2.3291   -3.6760    0.0000 H   0  0  0  0  0  0  0  0  0  0  0  0
    3.1760   -3.9030    0.0000 H   0  0  0  0  0  0  0  0  0  0  0  0
    3.4030   -3.0560    0.0000 H   0  0  0  0  0  0  0  0  0  0  0  0
    4.5981    0.7460    0.0000 H   0  0  0  0  0  0  0  0  0  0  0  0
    3.1951    3.1760    0.0000 H   0  0  0  0  0  0  0  0  0  0  0  0
    6.0010    1.5560    0.0000 H   0  0  0  0  0  0  0  0  0  0  0  0
    4.5981    3.9860    0.0000 H   0  0  0  0  0  0  0  0  0  0  0  0
  1 17  1  0  0  0  0
  2 11  2  0  0  0  0
  3  5  1  0  0  0  0
  3  6  1  0  0  0  0
  3  9  1  0  0  0  0
  3 18  1  0  0  0  0
  4  7  1  0  0  0  0
  4  8  1  0  0  0  0
  4 11  1  0  0  0  0
  5  7  1  0  0  0  0
  5 19  1  0  0  0  0
  5 20  1  0  0  0  0
  6  8  1  0  0  0  0
  6 21  1  0  0  0  0
  6 22  1  0  0  0  0
  7 23  1  0  0  0  0
  7 24  1  0  0  0  0
  8 25  1  0  0  0  0
  8 26  1  0  0  0  0
  9 10  1  0  0  0  0
  9 27  1  0  0  0  0
  9 28  1  0  0  0  0
 10 29  1  0  0  0  0
 10 30  1  0  0  0  0
 10 31  1  0  0  0  0
 11 12  1  0  0  0  0
 12 13  2  0  0  0  0
 12 14  1  0  0  0  0
 13 15  1  0  0  0  0
 13 32  1  0  0  0  0
 14 16  2  0  0  0  0
 14 33  1  0  0  0  0
 15 17  2  0  0  0  0
 15 34  1  0  0  0  0
 16 17  1  0  0  0  0
 16 35  1  0  0  0  0
M  CHG  1   3   1
M  END
> <PUBCHEM_COMPOUND_CID>
7858358

> <PUBCHEM_COMPOUND_CANONICALIZED>
1

> <PUBCHEM_CACTVS_COMPLEXITY>
256

> <PUBCHEM_CACTVS_HBOND_ACCEPTOR>
1

> <PUBCHEM_CACTVS_HBOND_DONOR>
1

> <PUBCHEM_CACTVS_ROTATABLE_BOND>
2

> <PUBCHEM_CACTVS_SUBSKEYS>
AAADceBzIAAEAAAAAAAAAAAAAAAAAAAAAAA8QAAAAAAAAAABAAAAHgIQAAAADALBmCQyAIPAAACIAiFSEACCAAAkBQAIiIEIBsgIYDKBlxGUIQhglgCIiYcYiACOBAAAAAAAAAAIAAAAAAAAAAAAAAAAAA==

> <PUBCHEM_IUPAC_OPENEYE_NAME>
(4-chlorophenyl)-(4-ethylpiperazin-4-ium-1-yl)methanone

> <PUBCHEM_IUPAC_CAS_NAME>
(4-chlorophenyl)-(4-ethyl-1-piperazin-4-iumyl)methanone

> <PUBCHEM_IUPAC_NAME>
(4-chlorophenyl)-(4-ethylpiperazin-4-ium-1-yl)methanone

> <PUBCHEM_IUPAC_SYSTEMATIC_NAME>
(4-chlorophenyl)-(4-ethylpiperazin-4-ium-1-yl)methanone

> <PUBCHEM_IUPAC_TRADITIONAL_NAME>
(4-chlorophenyl)-(4-ethylpiperazin-4-ium-1-yl)methanone

> <PUBCHEM_IUPAC_INCHI>
InChI=1S/C13H17ClN2O/c1-2-15-7-9-16(10-8-15)13(17)11-3-5-12(14)6-4-11/h3-6H,2,7-10H2,1H3/p+1

> <PUBCHEM_IUPAC_INCHIKEY>
CRKHIXQDNZZTJD-UHFFFAOYSA-O

> <PUBCHEM_XLOGP3>
1.3

> <PUBCHEM_EXACT_MASS>
253.110766

> <PUBCHEM_MOLECULAR_FORMULA>
C13H18ClN2O+

> <PUBCHEM_MOLECULAR_WEIGHT>
253.74782

> <PUBCHEM_OPENEYE_CAN_SMILES>
CC[NH+]1CCN(CC1)C(=O)C2=CC=C(C=C2)Cl

> <PUBCHEM_OPENEYE_ISO_SMILES>
CC[NH+]1CCN(CC1)C(=O)C2=CC=C(C=C2)Cl

> <PUBCHEM_CACTVS_TPSA>
24.8

> <PUBCHEM_MONOISOTOPIC_WEIGHT>
253.110766

> <PUBCHEM_TOTAL_CHARGE>
1

> <PUBCHEM_HEAVY_ATOM_COUNT>
17

> <PUBCHEM_ATOM_DEF_STEREO_COUNT>
0

> <PUBCHEM_ATOM_UDEF_STEREO_COUNT>
0

> <PUBCHEM_BOND_DEF_STEREO_COUNT>
0

> <PUBCHEM_BOND_UDEF_STEREO_COUNT>
0

> <PUBCHEM_ISOTOPIC_ATOM_COUNT>
0

> <PUBCHEM_COMPONENT_COUNT>
1

> <PUBCHEM_CACTVS_TAUTO_COUNT>
1

> <PUBCHEM_COORDINATE_TYPE>
1
5
255

> <PUBCHEM_BONDANNOTATIONS>
12  13  8
12  14  8
13  15  8
14  16  8
15  17  8
16  17  8

$$$$
7858417
  -OEChem-11301217042D

 29 30  0     1  0  0  0  0  0999 V2000
    2.0000   -0.5173    0.0000 Cl  0  0  0  0  0  0  0  0  0  0  0  0
    3.7320   -1.5173    0.0000 O   0  0  0  0  0  0  0  0  0  0  0  0
    4.5981   -0.0173    0.0000 N   0  0  0  0  0  0  0  0  0  0  0  0
    4.5981    0.9827    0.0000 C   0  0  0  0  0  0  0  0  0  0  0  0
    5.4641    1.4827    0.0000 C   0  0  0  0  0  0  0  0  0  0  0  0
    5.4641   -0.5173    0.0000 C   0  0  0  0  0  0  0  0  0  0  0  0
    6.3301    0.9827    0.0000 C   0  0  0  0  0  0  0  0  0  0  0  0
    6.3301   -0.0173    0.0000 C   0  0  0  0  0  0  0  0  0  0  0  0
    3.7320   -0.5173    0.0000 C   0  0  0  0  0  0  0  0  0  0  0  0
    7.2241    1.5173    0.0000 C   0  0  0  0  0  0  0  0  0  0  0  0
    7.2241   -0.5520    0.0000 C   0  0  0  0  0  0  0  0  0  0  0  0
    2.8660   -0.0173    0.0000 C   0  0  2  0  0  0  0  0  0  0  0  0
    8.1301    1.0035    0.0000 C   0  0  0  0  0  0  0  0  0  0  0  0
    8.1301   -0.0381    0.0000 C   0  0  0  0  0  0  0  0  0  0  0  0
    2.8660    0.9827    0.0000 C   0  0  0  0  0  0  0  0  0  0  0  0
    4.3860    1.5653    0.0000 H   0  0  0  0  0  0  0  0  0  0  0  0
    3.9875    0.8750    0.0000 H   0  0  0  0  0  0  0  0  0  0  0  0
    5.8626    1.9576    0.0000 H   0  0  0  0  0  0  0  0  0  0  0  0
    5.0656    1.9576    0.0000 H   0  0  0  0  0  0  0  0  0  0  0  0
    5.0656   -0.9923    0.0000 H   0  0  0  0  0  0  0  0  0  0  0  0
    5.8626   -0.9923    0.0000 H   0  0  0  0  0  0  0  0  0  0  0  0
    7.2169    2.1373    0.0000 H   0  0  0  0  0  0  0  0  0  0  0  0
    7.2169   -1.1720    0.0000 H   0  0  0  0  0  0  0  0  0  0  0  0
    2.8660   -0.6373    0.0000 H   0  0  0  0  0  0  0  0  0  0  0  0
    8.6659    1.3156    0.0000 H   0  0  0  0  0  0  0  0  0  0  0  0
    8.6659   -0.3502    0.0000 H   0  0  0  0  0  0  0  0  0  0  0  0
    3.4860    0.9827    0.0000 H   0  0  0  0  0  0  0  0  0  0  0  0
    2.8660    1.6027    0.0000 H   0  0  0  0  0  0  0  0  0  0  0  0
    2.2460    0.9827    0.0000 H   0  0  0  0  0  0  0  0  0  0  0  0
 12  1  1  1  0  0  0
  2  9  2  0  0  0  0
  3  4  1  0  0  0  0
  3  6  1  0  0  0  0
  3  9  1  0  0  0  0
  4  5  1  0  0  0  0
  4 16  1  0  0  0  0
  4 17  1  0  0  0  0
  5  7  1  0  0  0  0
  5 18  1  0  0  0  0
  5 19  1  0  0  0  0
  6  8  1  0  0  0  0
  6 20  1  0  0  0  0
  6 21  1  0  0  0  0
  7  8  1  0  0  0  0
  7 10  2  0  0  0  0
  8 11  2  0  0  0  0
  9 12  1  0  0  0  0
 10 13  1  0  0  0  0
 10 22  1  0  0  0  0
 11 14  1  0  0  0  0
 11 23  1  0  0  0  0
 12 15  1  0  0  0  0
 12 24  1  0  0  0  0
 13 14  2  0  0  0  0
 13 25  1  0  0  0  0
 14 26  1  0  0  0  0
 15 27  1  0  0  0  0
 15 28  1  0  0  0  0
 15 29  1  0  0  0  0
M  END
> <PUBCHEM_COMPOUND_CID>
7858417

> <PUBCHEM_COMPOUND_CANONICALIZED>
1

> <PUBCHEM_CACTVS_COMPLEXITY>
244

> <PUBCHEM_CACTVS_HBOND_ACCEPTOR>
1

> <PUBCHEM_CACTVS_HBOND_DONOR>
0

> <PUBCHEM_CACTVS_ROTATABLE_BOND>
1

> <PUBCHEM_CACTVS_SUBSKEYS>
AAADccByIAAEAAAAAAAAAAAAAAAAAAAAAAA8QAAAAAAAAACxAAAAHgIAAAAADAPBmEQyAIMAAACIAiFSEACCAAAgAAAIiAEIBIhIICKAkRHEIAhghgCIiAcQgIAOgAAAAAAQAAAAAAAAACAAAAAAAAAAAA==

> <PUBCHEM_IUPAC_OPENEYE_NAME>
(2S)-2-chloro-1-(3,4-dihydro-1H-isoquinolin-2-yl)propan-1-one

> <PUBCHEM_IUPAC_CAS_NAME>
(2S)-2-chloro-1-(3,4-dihydro-1H-isoquinolin-2-yl)-1-propanone

> <PUBCHEM_IUPAC_NAME>
(2S)-2-chloro-1-(3,4-dihydro-1H-isoquinolin-2-yl)propan-1-one

> <PUBCHEM_IUPAC_SYSTEMATIC_NAME>
(2S)-2-chloranyl-1-(3,4-dihydro-1H-isoquinolin-2-yl)propan-1-one

> <PUBCHEM_IUPAC_TRADITIONAL_NAME>
(2S)-2-chloro-1-(3,4-dihydro-1H-isoquinolin-2-yl)propan-1-one

> <PUBCHEM_IUPAC_INCHI>
InChI=1S/C12H14ClNO/c1-9(13)12(15)14-7-6-10-4-2-3-5-11(10)8-14/h2-5,9H,6-8H2,1H3/t9-/m0/s1

> <PUBCHEM_IUPAC_INCHIKEY>
QRBPVQFQAWBRAO-VIFPVBQESA-N

> <PUBCHEM_XLOGP3>
2.3

> <PUBCHEM_EXACT_MASS>
223.076392

> <PUBCHEM_MOLECULAR_FORMULA>
C12H14ClNO

> <PUBCHEM_MOLECULAR_WEIGHT>
223.69866

> <PUBCHEM_OPENEYE_CAN_SMILES>
CC(C(=O)N1CCC2=CC=CC=C2C1)Cl

> <PUBCHEM_OPENEYE_ISO_SMILES>
C[C@@H](C(=O)N1CCC2=CC=CC=C2C1)Cl

> <PUBCHEM_CACTVS_TPSA>
20.3

> <PUBCHEM_MONOISOTOPIC_WEIGHT>
223.076392

> <PUBCHEM_TOTAL_CHARGE>
0

> <PUBCHEM_HEAVY_ATOM_COUNT>
15

> <PUBCHEM_ATOM_DEF_STEREO_COUNT>
1

> <PUBCHEM_ATOM_UDEF_STEREO_COUNT>
0

> <PUBCHEM_BOND_DEF_STEREO_COUNT>
0

> <PUBCHEM_BOND_UDEF_STEREO_COUNT>
0

> <PUBCHEM_ISOTOPIC_ATOM_COUNT>
0

> <PUBCHEM_COMPONENT_COUNT>
1

> <PUBCHEM_CACTVS_TAUTO_COUNT>
1

> <PUBCHEM_COORDINATE_TYPE>
1
5
255

> <PUBCHEM_BONDANNOTATIONS>
12  1  5
10  13  8
11  14  8
13  14  8
7  10  8
7  8  8
8  11  8

$$$$
7858418
  -OEChem-11301217042D

 29 30  0     1  0  0  0  0  0999 V2000
    2.0000   -0.5173    0.0000 Cl  0  0  0  0  0  0  0  0  0  0  0  0
    3.7320   -1.5173    0.0000 O   0  0  0  0  0  0  0  0  0  0  0  0
    4.5981   -0.0173    0.0000 N   0  0  0  0  0  0  0  0  0  0  0  0
    4.5981    0.9827    0.0000 C   0  0  0  0  0  0  0  0  0  0  0  0
    5.4641    1.4827    0.0000 C   0  0  0  0  0  0  0  0  0  0  0  0
    5.4641   -0.5173    0.0000 C   0  0  0  0  0  0  0  0  0  0  0  0
    6.3301    0.9827    0.0000 C   0  0  0  0  0  0  0  0  0  0  0  0
    6.3301   -0.0173    0.0000 C   0  0  0  0  0  0  0  0  0  0  0  0
    3.7320   -0.5173    0.0000 C   0  0  0  0  0  0  0  0  0  0  0  0
    7.2241    1.5173    0.0000 C   0  0  0  0  0  0  0  0  0  0  0  0
    7.2241   -0.5520    0.0000 C   0  0  0  0  0  0  0  0  0  0  0  0
    2.8660   -0.0173    0.0000 C   0  0  1  0  0  0  0  0  0  0  0  0
    8.1301    1.0035    0.0000 C   0  0  0  0  0  0  0  0  0  0  0  0
    8.1301   -0.0381    0.0000 C   0  0  0  0  0  0  0  0  0  0  0  0
    2.8660    0.9827    0.0000 C   0  0  0  0  0  0  0  0  0  0  0  0
    4.3860    1.5653    0.0000 H   0  0  0  0  0  0  0  0  0  0  0  0
    3.9875    0.8750    0.0000 H   0  0  0  0  0  0  0  0  0  0  0  0
    5.8626    1.9576    0.0000 H   0  0  0  0  0  0  0  0  0  0  0  0
    5.0656    1.9576    0.0000 H   0  0  0  0  0  0  0  0  0  0  0  0
    5.0656   -0.9923    0.0000 H   0  0  0  0  0  0  0  0  0  0  0  0
    5.8626   -0.9923    0.0000 H   0  0  0  0  0  0  0  0  0  0  0  0
    7.2169    2.1373    0.0000 H   0  0  0  0  0  0  0  0  0  0  0  0
    7.2169   -1.1720    0.0000 H   0  0  0  0  0  0  0  0  0  0  0  0
    2.8660   -0.6373    0.0000 H   0  0  0  0  0  0  0  0  0  0  0  0
    8.6659    1.3156    0.0000 H   0  0  0  0  0  0  0  0  0  0  0  0
    8.6659   -0.3502    0.0000 H   0  0  0  0  0  0  0  0  0  0  0  0
    3.4860    0.9827    0.0000 H   0  0  0  0  0  0  0  0  0  0  0  0
    2.8660    1.6027    0.0000 H   0  0  0  0  0  0  0  0  0  0  0  0
    2.2460    0.9827    0.0000 H   0  0  0  0  0  0  0  0  0  0  0  0
 12  1  1  6  0  0  0
  2  9  2  0  0  0  0
  3  4  1  0  0  0  0
  3  6  1  0  0  0  0
  3  9  1  0  0  0  0
  4  5  1  0  0  0  0
  4 16  1  0  0  0  0
  4 17  1  0  0  0  0
  5  7  1  0  0  0  0
  5 18  1  0  0  0  0
  5 19  1  0  0  0  0
  6  8  1  0  0  0  0
  6 20  1  0  0  0  0
  6 21  1  0  0  0  0
  7  8  1  0  0  0  0
  7 10  2  0  0  0  0
  8 11  2  0  0  0  0
  9 12  1  0  0  0  0
 10 13  1  0  0  0  0
 10 22  1  0  0  0  0
 11 14  1  0  0  0  0
 11 23  1  0  0  0  0
 12 15  1  0  0  0  0
 12 24  1  0  0  0  0
 13 14  2  0  0  0  0
 13 25  1  0  0  0  0
 14 26  1  0  0  0  0
 15 27  1  0  0  0  0
 15 28  1  0  0  0  0
 15 29  1  0  0  0  0
M  END
> <PUBCHEM_COMPOUND_CID>
7858418

> <PUBCHEM_COMPOUND_CANONICALIZED>
1

> <PUBCHEM_CACTVS_COMPLEXITY>
244

> <PUBCHEM_CACTVS_HBOND_ACCEPTOR>
1

> <PUBCHEM_CACTVS_HBOND_DONOR>
0

> <PUBCHEM_CACTVS_ROTATABLE_BOND>
1

> <PUBCHEM_CACTVS_SUBSKEYS>
AAADccByIAAEAAAAAAAAAAAAAAAAAAAAAAA8QAAAAAAAAACxAAAAHgIAAAAADAPBmEQyAIMAAACIAiFSEACCAAAgAAAIiAEIBIhIICKAkRHEIAhghgCIiAcQgIAOgAAAAAAQAAAAAAAAACAAAAAAAAAAAA==

> <PUBCHEM_IUPAC_OPENEYE_NAME>
(2R)-2-chloro-1-(3,4-dihydro-1H-isoquinolin-2-yl)propan-1-one

> <PUBCHEM_IUPAC_CAS_NAME>
(2R)-2-chloro-1-(3,4-dihydro-1H-isoquinolin-2-yl)-1-propanone

> <PUBCHEM_IUPAC_NAME>
(2R)-2-chloro-1-(3,4-dihydro-1H-isoquinolin-2-yl)propan-1-one

> <PUBCHEM_IUPAC_SYSTEMATIC_NAME>
(2R)-2-chloranyl-1-(3,4-dihydro-1H-isoquinolin-2-yl)propan-1-one

> <PUBCHEM_IUPAC_TRADITIONAL_NAME>
(2R)-2-chloro-1-(3,4-dihydro-1H-isoquinolin-2-yl)propan-1-one

> <PUBCHEM_IUPAC_INCHI>
InChI=1S/C12H14ClNO/c1-9(13)12(15)14-7-6-10-4-2-3-5-11(10)8-14/h2-5,9H,6-8H2,1H3/t9-/m1/s1

> <PUBCHEM_IUPAC_INCHIKEY>
QRBPVQFQAWBRAO-SECBINFHSA-N

> <PUBCHEM_XLOGP3>
2.3

> <PUBCHEM_EXACT_MASS>
223.076392

> <PUBCHEM_MOLECULAR_FORMULA>
C12H14ClNO

> <PUBCHEM_MOLECULAR_WEIGHT>
223.69866

> <PUBCHEM_OPENEYE_CAN_SMILES>
CC(C(=O)N1CCC2=CC=CC=C2C1)Cl

> <PUBCHEM_OPENEYE_ISO_SMILES>
C[C@H](C(=O)N1CCC2=CC=CC=C2C1)Cl

> <PUBCHEM_CACTVS_TPSA>
20.3

> <PUBCHEM_MONOISOTOPIC_WEIGHT>
223.076392

> <PUBCHEM_TOTAL_CHARGE>
0

> <PUBCHEM_HEAVY_ATOM_COUNT>
15

> <PUBCHEM_ATOM_DEF_STEREO_COUNT>
1

> <PUBCHEM_ATOM_UDEF_STEREO_COUNT>
0

> <PUBCHEM_BOND_DEF_STEREO_COUNT>
0

> <PUBCHEM_BOND_UDEF_STEREO_COUNT>
0

> <PUBCHEM_ISOTOPIC_ATOM_COUNT>
0

> <PUBCHEM_COMPONENT_COUNT>
1

> <PUBCHEM_CACTVS_TAUTO_COUNT>
1

> <PUBCHEM_COORDINATE_TYPE>
1
5
255

> <PUBCHEM_BONDANNOTATIONS>
12  1  6
10  13  8
11  14  8
13  14  8
7  10  8
7  8  8
8  11  8

$$$$
7869605
  -OEChem-11301217042D

 28 28  0     1  0  0  0  0  0999 V2000
    2.5369   -2.0600    0.0000 O   0  0  0  0  0  0  0  0  0  0  0  0
    5.1350    2.4400    0.0000 N   0  3  0  0  0  0  0  0  0  0  0  0
    5.1350    1.4400    0.0000 C   0  0  1  0  0  0  0  0  0  0  0  0
    4.2690    0.9400    0.0000 C   0  0  0  0  0  0  0  0  0  0  0  0
    4.2690   -0.0600    0.0000 C   0  0  0  0  0  0  0  0  0  0  0  0
    6.0010    0.9400    0.0000 C   0  0  0  0  0  0  0  0  0  0  0  0
    3.4030   -0.5600    0.0000 C   0  0  0  0  0  0  0  0  0  0  0  0
    5.1350   -0.5600    0.0000 C   0  0  0  0  0  0  0  0  0  0  0  0
    4.2690   -2.0600    0.0000 C   0  0  0  0  0  0  0  0  0  0  0  0
    3.4030   -1.5600    0.0000 C   0  0  0  0  0  0  0  0  0  0  0  0
    5.1350   -1.5600    0.0000 C   0  0  0  0  0  0  0  0  0  0  0  0
    4.2690   -3.0600    0.0000 C   0  0  0  0  0  0  0  0  0  0  0  0
    5.6720    1.7500    0.0000 H   0  0  0  0  0  0  0  0  0  0  0  0
    4.0569    1.5226    0.0000 H   0  0  0  0  0  0  0  0  0  0  0  0
    3.6584    0.8323    0.0000 H   0  0  0  0  0  0  0  0  0  0  0  0
    5.1350    3.0600    0.0000 H   0  0  0  0  0  0  0  0  0  0  0  0
    5.7550    2.4400    0.0000 H   0  0  0  0  0  0  0  0  0  0  0  0
    4.5150    2.4400    0.0000 H   0  0  0  0  0  0  0  0  0  0  0  0
    5.6910    0.4031    0.0000 H   0  0  0  0  0  0  0  0  0  0  0  0
    6.5380    0.6300    0.0000 H   0  0  0  0  0  0  0  0  0  0  0  0
    6.3110    1.4769    0.0000 H   0  0  0  0  0  0  0  0  0  0  0  0
    2.8660   -0.2500    0.0000 H   0  0  0  0  0  0  0  0  0  0  0  0
    5.6720   -0.2500    0.0000 H   0  0  0  0  0  0  0  0  0  0  0  0
    5.6720   -1.8700    0.0000 H   0  0  0  0  0  0  0  0  0  0  0  0
    3.6490   -3.0600    0.0000 H   0  0  0  0  0  0  0  0  0  0  0  0
    4.2690   -3.6800    0.0000 H   0  0  0  0  0  0  0  0  0  0  0  0
    4.8890   -3.0600    0.0000 H   0  0  0  0  0  0  0  0  0  0  0  0
    2.0000   -1.7500    0.0000 H   0  0  0  0  0  0  0  0  0  0  0  0
  1 10  1  0  0  0  0
  1 28  1  0  0  0  0
  3  2  1  6  0  0  0
  2 16  1  0  0  0  0
  2 17  1  0  0  0  0
  2 18  1  0  0  0  0
  3  4  1  0  0  0  0
  3  6  1  0  0  0  0
  3 13  1  0  0  0  0
  4  5  1  0  0  0  0
  4 14  1  0  0  0  0
  4 15  1  0  0  0  0
  5  7  2  0  0  0  0
  5  8  1  0  0  0  0
  6 19  1  0  0  0  0
  6 20  1  0  0  0  0
  6 21  1  0  0  0  0
  7 10  1  0  0  0  0
  7 22  1  0  0  0  0
  8 11  2  0  0  0  0
  8 23  1  0  0  0  0
  9 10  2  0  0  0  0
  9 11  1  0  0  0  0
  9 12  1  0  0  0  0
 11 24  1  0  0  0  0
 12 25  1  0  0  0  0
 12 26  1  0  0  0  0
 12 27  1  0  0  0  0
M  CHG  1   2   1
M  END
> <PUBCHEM_COMPOUND_CID>
7869605

> <PUBCHEM_COMPOUND_CANONICALIZED>
1

> <PUBCHEM_CACTVS_COMPLEXITY>
138

> <PUBCHEM_CACTVS_HBOND_ACCEPTOR>
1

> <PUBCHEM_CACTVS_HBOND_DONOR>
2

> <PUBCHEM_CACTVS_ROTATABLE_BOND>
2

> <PUBCHEM_CACTVS_SUBSKEYS>
AAADceByIAAAAAAAAAAAAAAAAAAAAAAAAAAwAAAAAAAAAAABAAAAHgAQCAAADCzBmAQyBoBAAgCAAiBCAAACAAAgIAAIiIAGCIgIJiKCkROAcAAk0BEImAeQ0PEOQAABAAAIAACAAAIAABAAAAAAAAAAAA==

> <PUBCHEM_IUPAC_OPENEYE_NAME>
[(1R)-2-(3-hydroxy-4-methyl-phenyl)-1-methyl-ethyl]ammonium

> <PUBCHEM_IUPAC_CAS_NAME>
[(2R)-1-(3-hydroxy-4-methylphenyl)propan-2-yl]ammonium

> <PUBCHEM_IUPAC_NAME>
[(2R)-1-(3-hydroxy-4-methylphenyl)propan-2-yl]azanium

> <PUBCHEM_IUPAC_SYSTEMATIC_NAME>
[(2R)-1-(4-methyl-3-oxidanyl-phenyl)propan-2-yl]azanium

> <PUBCHEM_IUPAC_TRADITIONAL_NAME>
[(1R)-2-(3-hydroxy-4-methyl-phenyl)-1-methyl-ethyl]ammonium

> <PUBCHEM_IUPAC_INCHI>
InChI=1S/C10H15NO/c1-7-3-4-9(5-8(2)11)6-10(7)12/h3-4,6,8,12H,5,11H2,1-2H3/p+1/t8-/m1/s1

> <PUBCHEM_IUPAC_INCHIKEY>
XWLXNPMITZDCHL-MRVPVSSYSA-O

> <PUBCHEM_XLOGP3>
1.7

> <PUBCHEM_EXACT_MASS>
166.123189

> <PUBCHEM_MOLECULAR_FORMULA>
C10H16NO+

> <PUBCHEM_MOLECULAR_WEIGHT>
166.24014

> <PUBCHEM_OPENEYE_CAN_SMILES>
CC1=C(C=C(C=C1)CC(C)[NH3+])O

> <PUBCHEM_OPENEYE_ISO_SMILES>
CC1=C(C=C(C=C1)C[C@@H](C)[NH3+])O

> <PUBCHEM_CACTVS_TPSA>
47.9

> <PUBCHEM_MONOISOTOPIC_WEIGHT>
166.123189

> <PUBCHEM_TOTAL_CHARGE>
1

> <PUBCHEM_HEAVY_ATOM_COUNT>
12

> <PUBCHEM_ATOM_DEF_STEREO_COUNT>
1

> <PUBCHEM_ATOM_UDEF_STEREO_COUNT>
0

> <PUBCHEM_BOND_DEF_STEREO_COUNT>
0

> <PUBCHEM_BOND_UDEF_STEREO_COUNT>
0

> <PUBCHEM_ISOTOPIC_ATOM_COUNT>
0

> <PUBCHEM_COMPONENT_COUNT>
1

> <PUBCHEM_CACTVS_TAUTO_COUNT>
9

> <PUBCHEM_COORDINATE_TYPE>
1
5
255

> <PUBCHEM_BONDANNOTATIONS>
3  2  6
5  7  8
5  8  8
7  10  8
8  11  8
9  10  8
9  11  8

$$$$
7869607
  -OEChem-11301217042D

 28 28  0     1  0  0  0  0  0999 V2000
    2.5369   -2.0600    0.0000 O   0  0  0  0  0  0  0  0  0  0  0  0
    5.1350    2.4400    0.0000 N   0  3  0  0  0  0  0  0  0  0  0  0
    5.1350    1.4400    0.0000 C   0  0  2  0  0  0  0  0  0  0  0  0
    4.2690    0.9400    0.0000 C   0  0  0  0  0  0  0  0  0  0  0  0
    4.2690   -0.0600    0.0000 C   0  0  0  0  0  0  0  0  0  0  0  0
    6.0010    0.9400    0.0000 C   0  0  0  0  0  0  0  0  0  0  0  0
    3.4030   -0.5600    0.0000 C   0  0  0  0  0  0  0  0  0  0  0  0
    5.1350   -0.5600    0.0000 C   0  0  0  0  0  0  0  0  0  0  0  0
    4.2690   -2.0600    0.0000 C   0  0  0  0  0  0  0  0  0  0  0  0
    3.4030   -1.5600    0.0000 C   0  0  0  0  0  0  0  0  0  0  0  0
    5.1350   -1.5600    0.0000 C   0  0  0  0  0  0  0  0  0  0  0  0
    4.2690   -3.0600    0.0000 C   0  0  0  0  0  0  0  0  0  0  0  0
    5.6720    1.7500    0.0000 H   0  0  0  0  0  0  0  0  0  0  0  0
    4.0569    1.5226    0.0000 H   0  0  0  0  0  0  0  0  0  0  0  0
    3.6584    0.8323    0.0000 H   0  0  0  0  0  0  0  0  0  0  0  0
    5.1350    3.0600    0.0000 H   0  0  0  0  0  0  0  0  0  0  0  0
    5.7550    2.4400    0.0000 H   0  0  0  0  0  0  0  0  0  0  0  0
    4.5150    2.4400    0.0000 H   0  0  0  0  0  0  0  0  0  0  0  0
    5.6910    0.4031    0.0000 H   0  0  0  0  0  0  0  0  0  0  0  0
    6.5380    0.6300    0.0000 H   0  0  0  0  0  0  0  0  0  0  0  0
    6.3110    1.4769    0.0000 H   0  0  0  0  0  0  0  0  0  0  0  0
    2.8660   -0.2500    0.0000 H   0  0  0  0  0  0  0  0  0  0  0  0
    5.6720   -0.2500    0.0000 H   0  0  0  0  0  0  0  0  0  0  0  0
    5.6720   -1.8700    0.0000 H   0  0  0  0  0  0  0  0  0  0  0  0
    3.6490   -3.0600    0.0000 H   0  0  0  0  0  0  0  0  0  0  0  0
    4.2690   -3.6800    0.0000 H   0  0  0  0  0  0  0  0  0  0  0  0
    4.8890   -3.0600    0.0000 H   0  0  0  0  0  0  0  0  0  0  0  0
    2.0000   -1.7500    0.0000 H   0  0  0  0  0  0  0  0  0  0  0  0
  1 10  1  0  0  0  0
  1 28  1  0  0  0  0
  3  2  1  1  0  0  0
  2 16  1  0  0  0  0
  2 17  1  0  0  0  0
  2 18  1  0  0  0  0
  3  4  1  0  0  0  0
  3  6  1  0  0  0  0
  3 13  1  0  0  0  0
  4  5  1  0  0  0  0
  4 14  1  0  0  0  0
  4 15  1  0  0  0  0
  5  7  2  0  0  0  0
  5  8  1  0  0  0  0
  6 19  1  0  0  0  0
  6 20  1  0  0  0  0
  6 21  1  0  0  0  0
  7 10  1  0  0  0  0
  7 22  1  0  0  0  0
  8 11  2  0  0  0  0
  8 23  1  0  0  0  0
  9 10  2  0  0  0  0
  9 11  1  0  0  0  0
  9 12  1  0  0  0  0
 11 24  1  0  0  0  0
 12 25  1  0  0  0  0
 12 26  1  0  0  0  0
 12 27  1  0  0  0  0
M  CHG  1   2   1
M  END
> <PUBCHEM_COMPOUND_CID>
7869607

> <PUBCHEM_COMPOUND_CANONICALIZED>
1

> <PUBCHEM_CACTVS_COMPLEXITY>
138

> <PUBCHEM_CACTVS_HBOND_ACCEPTOR>
1

> <PUBCHEM_CACTVS_HBOND_DONOR>
2

> <PUBCHEM_CACTVS_ROTATABLE_BOND>
2

> <PUBCHEM_CACTVS_SUBSKEYS>
AAADceByIAAAAAAAAAAAAAAAAAAAAAAAAAAwAAAAAAAAAAABAAAAHgAQCAAADCzBmAQyBoBAAgCAAiBCAAACAAAgIAAIiIAGCIgIJiKCkROAcAAk0BEImAeQ0PEOQAABAAAIAACAAAIAABAAAAAAAAAAAA==

> <PUBCHEM_IUPAC_OPENEYE_NAME>
[(1S)-2-(3-hydroxy-4-methyl-phenyl)-1-methyl-ethyl]ammonium

> <PUBCHEM_IUPAC_CAS_NAME>
[(2S)-1-(3-hydroxy-4-methylphenyl)propan-2-yl]ammonium

> <PUBCHEM_IUPAC_NAME>
[(2S)-1-(3-hydroxy-4-methylphenyl)propan-2-yl]azanium

> <PUBCHEM_IUPAC_SYSTEMATIC_NAME>
[(2S)-1-(4-methyl-3-oxidanyl-phenyl)propan-2-yl]azanium

> <PUBCHEM_IUPAC_TRADITIONAL_NAME>
[(1S)-2-(3-hydroxy-4-methyl-phenyl)-1-methyl-ethyl]ammonium

> <PUBCHEM_IUPAC_INCHI>
InChI=1S/C10H15NO/c1-7-3-4-9(5-8(2)11)6-10(7)12/h3-4,6,8,12H,5,11H2,1-2H3/p+1/t8-/m0/s1

> <PUBCHEM_IUPAC_INCHIKEY>
XWLXNPMITZDCHL-QMMMGPOBSA-O

> <PUBCHEM_XLOGP3>
1.7

> <PUBCHEM_EXACT_MASS>
166.123189

> <PUBCHEM_MOLECULAR_FORMULA>
C10H16NO+

> <PUBCHEM_MOLECULAR_WEIGHT>
166.24014

> <PUBCHEM_OPENEYE_CAN_SMILES>
CC1=C(C=C(C=C1)CC(C)[NH3+])O

> <PUBCHEM_OPENEYE_ISO_SMILES>
CC1=C(C=C(C=C1)C[C@H](C)[NH3+])O

> <PUBCHEM_CACTVS_TPSA>
47.9

> <PUBCHEM_MONOISOTOPIC_WEIGHT>
166.123189

> <PUBCHEM_TOTAL_CHARGE>
1

> <PUBCHEM_HEAVY_ATOM_COUNT>
12

> <PUBCHEM_ATOM_DEF_STEREO_COUNT>
1

> <PUBCHEM_ATOM_UDEF_STEREO_COUNT>
0

> <PUBCHEM_BOND_DEF_STEREO_COUNT>
0

> <PUBCHEM_BOND_UDEF_STEREO_COUNT>
0

> <PUBCHEM_ISOTOPIC_ATOM_COUNT>
0

> <PUBCHEM_COMPONENT_COUNT>
1

> <PUBCHEM_CACTVS_TAUTO_COUNT>
9

> <PUBCHEM_COORDINATE_TYPE>
1
5
255

> <PUBCHEM_BONDANNOTATIONS>
3  2  5
5  7  8
5  8  8
7  10  8
8  11  8
9  10  8
9  11  8

$$$$
7872345
  -OEChem-11301217042D

 41 42  0     0  0  0  0  0  0999 V2000
    2.0000   -1.4316    0.0000 Br  0  0  0  0  0  0  0  0  0  0  0  0
    5.8594    0.5945    0.0000 O   0  0  0  0  0  0  0  0  0  0  0  0
    7.8538    0.7440    0.0000 N   0  3  0  0  0  0  0  0  0  0  0  0
    5.9888   -1.1327    0.0000 N   0  0  0  0  0  0  0  0  0  0  0  0
    6.9528    1.1779    0.0000 C   0  0  0  0  0  0  0  0  0  0  0  0
    8.7548    1.1779    0.0000 C   0  0  0  0  0  0  0  0  0  0  0  0
    6.7303    2.1528    0.0000 C   0  0  0  0  0  0  0  0  0  0  0  0
    8.9773    2.1528    0.0000 C   0  0  0  0  0  0  0  0  0  0  0  0
    8.3538    2.9346    0.0000 C   0  0  0  0  0  0  0  0  0  0  0  0
    7.3538    2.9346    0.0000 C   0  0  0  0  0  0  0  0  0  0  0  0
    7.4199   -0.1570    0.0000 C   0  0  0  0  0  0  0  0  0  0  0  0
    6.4227   -0.2317    0.0000 C   0  0  0  0  0  0  0  0  0  0  0  0
    4.9916   -1.2074    0.0000 C   0  0  0  0  0  0  0  0  0  0  0  0
    4.5577   -2.1084    0.0000 C   0  0  0  0  0  0  0  0  0  0  0  0
    4.4283   -0.3812    0.0000 C   0  0  0  0  0  0  0  0  0  0  0  0
    3.5605   -2.1831    0.0000 C   0  0  0  0  0  0  0  0  0  0  0  0
    5.1210   -2.9346    0.0000 C   0  0  0  0  0  0  0  0  0  0  0  0
    3.4311   -0.4559    0.0000 C   0  0  0  0  0  0  0  0  0  0  0  0
    2.9972   -1.3569    0.0000 C   0  0  0  0  0  0  0  0  0  0  0  0
    8.1228    0.1854    0.0000 H   0  0  0  0  0  0  0  0  0  0  0  0
    8.8927    0.5734    0.0000 H   0  0  0  0  0  0  0  0  0  0  0  0
    9.3748    1.1779    0.0000 H   0  0  0  0  0  0  0  0  0  0  0  0
    6.3328    1.1779    0.0000 H   0  0  0  0  0  0  0  0  0  0  0  0
    6.8148    0.5734    0.0000 H   0  0  0  0  0  0  0  0  0  0  0  0
    9.5359    1.8838    0.0000 H   0  0  0  0  0  0  0  0  0  0  0  0
    9.3638    2.6375    0.0000 H   0  0  0  0  0  0  0  0  0  0  0  0
    6.3437    2.6375    0.0000 H   0  0  0  0  0  0  0  0  0  0  0  0
    6.1717    1.8838    0.0000 H   0  0  0  0  0  0  0  0  0  0  0  0
    8.9124    3.2036    0.0000 H   0  0  0  0  0  0  0  0  0  0  0  0
    8.2158    3.5391    0.0000 H   0  0  0  0  0  0  0  0  0  0  0  0
    7.4918    3.5391    0.0000 H   0  0  0  0  0  0  0  0  0  0  0  0
    6.7952    3.2036    0.0000 H   0  0  0  0  0  0  0  0  0  0  0  0
    7.3582   -0.7739    0.0000 H   0  0  0  0  0  0  0  0  0  0  0  0
    8.0167   -0.3249    0.0000 H   0  0  0  0  0  0  0  0  0  0  0  0
    6.3381   -1.6450    0.0000 H   0  0  0  0  0  0  0  0  0  0  0  0
    4.6973    0.1774    0.0000 H   0  0  0  0  0  0  0  0  0  0  0  0
    3.2915   -2.7417    0.0000 H   0  0  0  0  0  0  0  0  0  0  0  0
    4.6088   -3.2839    0.0000 H   0  0  0  0  0  0  0  0  0  0  0  0
    5.4703   -3.4469    0.0000 H   0  0  0  0  0  0  0  0  0  0  0  0
    5.6333   -2.5854    0.0000 H   0  0  0  0  0  0  0  0  0  0  0  0
    3.0818    0.0564    0.0000 H   0  0  0  0  0  0  0  0  0  0  0  0
  1 19  1  0  0  0  0
  2 12  2  0  0  0  0
  3  5  1  0  0  0  0
  3  6  1  0  0  0  0
  3 11  1  0  0  0  0
  3 20  1  0  0  0  0
  4 12  1  0  0  0  0
  4 13  1  0  0  0  0
  4 35  1  0  0  0  0
  5  7  1  0  0  0  0
  5 23  1  0  0  0  0
  5 24  1  0  0  0  0
  6  8  1  0  0  0  0
  6 21  1  0  0  0  0
  6 22  1  0  0  0  0
  7 10  1  0  0  0  0
  7 27  1  0  0  0  0
  7 28  1  0  0  0  0
  8  9  1  0  0  0  0
  8 25  1  0  0  0  0
  8 26  1  0  0  0  0
  9 10  1  0  0  0  0
  9 29  1  0  0  0  0
  9 30  1  0  0  0  0
 10 31  1  0  0  0  0
 10 32  1  0  0  0  0
 11 12  1  0  0  0  0
 11 33  1  0  0  0  0
 11 34  1  0  0  0  0
 13 14  2  0  0  0  0
 13 15  1  0  0  0  0
 14 16  1  0  0  0  0
 14 17  1  0  0  0  0
 15 18  2  0  0  0  0
 15 36  1  0  0  0  0
 16 19  2  0  0  0  0
 16 37  1  0  0  0  0
 17 38  1  0  0  0  0
 17 39  1  0  0  0  0
 17 40  1  0  0  0  0
 18 19  1  0  0  0  0
 18 41  1  0  0  0  0
M  CHG  1   3   1
M  END
> <PUBCHEM_COMPOUND_CID>
7872345

> <PUBCHEM_COMPOUND_CANONICALIZED>
1

> <PUBCHEM_CACTVS_COMPLEXITY>
290

> <PUBCHEM_CACTVS_HBOND_ACCEPTOR>
1

> <PUBCHEM_CACTVS_HBOND_DONOR>
2

> <PUBCHEM_CACTVS_ROTATABLE_BOND>
3

> <PUBCHEM_CACTVS_SUBSKEYS>
AAADceBzIAAAEAAAAAAAAAAAAAAAAAAAAAAwAAAABYAAAAABAAAAHgBQAAABrAjBmAQywIPAAACIAiVSUACCAAAhAgQIiICIZKgIYCLAkbGUIAhglADIyhcQgAAOAAAgEAACAAAAAEAgAAQAAAAAAAAAAA==

> <PUBCHEM_IUPAC_OPENEYE_NAME>
2-(azepan-1-ium-1-yl)-N-(4-bromo-2-methyl-phenyl)acetamide

> <PUBCHEM_IUPAC_CAS_NAME>
2-(1-azepan-1-iumyl)-N-(4-bromo-2-methylphenyl)acetamide

> <PUBCHEM_IUPAC_NAME>
2-(azepan-1-ium-1-yl)-N-(4-bromo-2-methylphenyl)acetamide

> <PUBCHEM_IUPAC_SYSTEMATIC_NAME>
2-(azepan-1-ium-1-yl)-N-(4-bromanyl-2-methyl-phenyl)ethanamide

> <PUBCHEM_IUPAC_TRADITIONAL_NAME>
2-(azepan-1-ium-1-yl)-N-(4-bromo-2-methyl-phenyl)acetamide

> <PUBCHEM_IUPAC_INCHI>
InChI=1S/C15H21BrN2O/c1-12-10-13(16)6-7-14(12)17-15(19)11-18-8-4-2-3-5-9-18/h6-7,10H,2-5,8-9,11H2,1H3,(H,17,19)/p+1

> <PUBCHEM_IUPAC_INCHIKEY>
RKQVZMHSMOWIIL-UHFFFAOYSA-O

> <PUBCHEM_XLOGP3>
3.3

> <PUBCHEM_EXACT_MASS>
325.09155

> <PUBCHEM_MOLECULAR_FORMULA>
C15H22BrN2O+

> <PUBCHEM_MOLECULAR_WEIGHT>
326.25198

> <PUBCHEM_OPENEYE_CAN_SMILES>
CC1=C(C=CC(=C1)Br)NC(=O)C[NH+]2CCCCCC2

> <PUBCHEM_OPENEYE_ISO_SMILES>
CC1=C(C=CC(=C1)Br)NC(=O)C[NH+]2CCCCCC2

> <PUBCHEM_CACTVS_TPSA>
33.5

> <PUBCHEM_MONOISOTOPIC_WEIGHT>
325.09155

> <PUBCHEM_TOTAL_CHARGE>
1

> <PUBCHEM_HEAVY_ATOM_COUNT>
19

> <PUBCHEM_ATOM_DEF_STEREO_COUNT>
0

> <PUBCHEM_ATOM_UDEF_STEREO_COUNT>
0

> <PUBCHEM_BOND_DEF_STEREO_COUNT>
0

> <PUBCHEM_BOND_UDEF_STEREO_COUNT>
0

> <PUBCHEM_ISOTOPIC_ATOM_COUNT>
0

> <PUBCHEM_COMPONENT_COUNT>
1

> <PUBCHEM_CACTVS_TAUTO_COUNT>
3

> <PUBCHEM_COORDINATE_TYPE>
1
5
255

> <PUBCHEM_BONDANNOTATIONS>
13  14  8
13  15  8
14  16  8
15  18  8
16  19  8
18  19  8

$$$$
