67025420
  -OEChem-12041212262D

 28 28  0     0  0  0  0  0  0999 V2000
    2.0000   -0.2500    0.0000 Br  0  0  0  0  0  0  0  0  0  0  0  0
    4.5981    1.2500    0.0000 O   0  0  0  0  0  0  0  0  0  0  0  0
    6.3301    1.2500    0.0000 N   0  0  0  0  0  0  0  0  0  0  0  0
    4.5981   -0.7500    0.0000 C   0  0  0  0  0  0  0  0  0  0  0  0
    5.4641   -0.2500    0.0000 C   0  0  0  0  0  0  0  0  0  0  0  0
    3.7320   -0.2500    0.0000 C   0  0  0  0  0  0  0  0  0  0  0  0
    5.4641    0.7500    0.0000 C   0  0  0  0  0  0  0  0  0  0  0  0
    4.5981   -1.7500    0.0000 C   0  0  0  0  0  0  0  0  0  0  0  0
    6.3301   -0.7500    0.0000 C   0  0  0  0  0  0  0  0  0  0  0  0
    2.8660   -0.7500    0.0000 C   0  0  0  0  0  0  0  0  0  0  0  0
    5.4641   -2.2500    0.0000 C   0  0  0  0  0  0  0  0  0  0  0  0
    6.3301   -1.7500    0.0000 C   0  0  0  0  0  0  0  0  0  0  0  0
    6.3301    2.2500    0.0000 C   0  0  0  0  0  0  0  0  0  0  0  0
    7.1962    0.7500    0.0000 C   0  0  0  0  0  0  0  0  0  0  0  0
    4.1306    0.2249    0.0000 H   0  0  0  0  0  0  0  0  0  0  0  0
    3.3335    0.2249    0.0000 H   0  0  0  0  0  0  0  0  0  0  0  0
    4.0611   -2.0600    0.0000 H   0  0  0  0  0  0  0  0  0  0  0  0
    6.8671   -0.4400    0.0000 H   0  0  0  0  0  0  0  0  0  0  0  0
    2.4675   -1.2250    0.0000 H   0  0  0  0  0  0  0  0  0  0  0  0
    3.2646   -1.2250    0.0000 H   0  0  0  0  0  0  0  0  0  0  0  0
    5.4641   -2.8700    0.0000 H   0  0  0  0  0  0  0  0  0  0  0  0
    6.8671   -2.0600    0.0000 H   0  0  0  0  0  0  0  0  0  0  0  0
    6.9501    2.2500    0.0000 H   0  0  0  0  0  0  0  0  0  0  0  0
    6.8862    0.2131    0.0000 H   0  0  0  0  0  0  0  0  0  0  0  0
    7.7331    0.4400    0.0000 H   0  0  0  0  0  0  0  0  0  0  0  0
    7.5062    1.2869    0.0000 H   0  0  0  0  0  0  0  0  0  0  0  0
    6.3301    2.8700    0.0000 H   0  0  0  0  0  0  0  0  0  0  0  0
    5.7101    2.2500    0.0000 H   0  0  0  0  0  0  0  0  0  0  0  0
  1 10  1  0  0  0  0
  2  7  2  0  0  0  0
  3  7  1  0  0  0  0
  3 13  1  0  0  0  0
  3 14  1  0  0  0  0
  4  5  1  0  0  0  0
  4  6  1  0  0  0  0
  4  8  2  0  0  0  0
  5  7  1  0  0  0  0
  5  9  2  0  0  0  0
  6 10  1  0  0  0  0
  6 15  1  0  0  0  0
  6 16  1  0  0  0  0
  8 11  1  0  0  0  0
  8 17  1  0  0  0  0
  9 12  1  0  0  0  0
  9 18  1  0  0  0  0
 10 19  1  0  0  0  0
 10 20  1  0  0  0  0
 11 12  2  0  0  0  0
 11 21  1  0  0  0  0
 12 22  1  0  0  0  0
 13 23  1  0  0  0  0
 13 27  1  0  0  0  0
 13 28  1  0  0  0  0
 14 24  1  0  0  0  0
 14 25  1  0  0  0  0
 14 26  1  0  0  0  0
M  END
> <PUBCHEM_COMPOUND_CID>
67025420

> <PUBCHEM_COMPOUND_CANONICALIZED>
1

> <PUBCHEM_CACTVS_COMPLEXITY>
194

> <PUBCHEM_CACTVS_HBOND_ACCEPTOR>
1

> <PUBCHEM_CACTVS_HBOND_DONOR>
0

> <PUBCHEM_CACTVS_ROTATABLE_BOND>
3

> <PUBCHEM_CACTVS_SUBSKEYS>
AAADccByIAAAEAAAAAAAAAAAAAAAAAAAAAAwAAAAAAAAAAABAAAAHgBAAAABTACBmAQyAIMAAACIAiFSEACCAAAkAAAIiAEIBOgIIDKAlRGEIQhgggAIiZcYiICOgAAAAAAQAAAAAAAAACAAAAAAAAAAAA==

> <PUBCHEM_IUPAC_OPENEYE_NAME>
2-(2-bromoethyl)-N,N-dimethyl-benzamide

> <PUBCHEM_IUPAC_CAS_NAME>
2-(2-bromoethyl)-N,N-dimethylbenzamide

> <PUBCHEM_IUPAC_NAME>
2-(2-bromoethyl)-N,N-dimethylbenzamide

> <PUBCHEM_IUPAC_SYSTEMATIC_NAME>
2-(2-bromoethyl)-N,N-dimethyl-benzamide

> <PUBCHEM_IUPAC_TRADITIONAL_NAME>
2-(2-bromoethyl)-N,N-dimethyl-benzamide

> <PUBCHEM_IUPAC_INCHI>
InChI=1S/C11H14BrNO/c1-13(2)11(14)10-6-4-3-5-9(10)7-8-12/h3-6H,7-8H2,1-2H3

> <PUBCHEM_IUPAC_INCHIKEY>
YVNAORKGGDWYOV-UHFFFAOYSA-N

> <PUBCHEM_XLOGP3>
2

> <PUBCHEM_EXACT_MASS>
255.025876

> <PUBCHEM_MOLECULAR_FORMULA>
C11H14BrNO

> <PUBCHEM_MOLECULAR_WEIGHT>
256.13896

> <PUBCHEM_OPENEYE_CAN_SMILES>
CN(C)C(=O)C1=CC=CC=C1CCBr

> <PUBCHEM_OPENEYE_ISO_SMILES>
CN(C)C(=O)C1=CC=CC=C1CCBr

> <PUBCHEM_CACTVS_TPSA>
20.3

> <PUBCHEM_MONOISOTOPIC_WEIGHT>
255.025876

> <PUBCHEM_TOTAL_CHARGE>
0

> <PUBCHEM_HEAVY_ATOM_COUNT>
14

> <PUBCHEM_ATOM_DEF_STEREO_COUNT>
0

> <PUBCHEM_ATOM_UDEF_STEREO_COUNT>
0

> <PUBCHEM_BOND_DEF_STEREO_COUNT>
0

> <PUBCHEM_BOND_UDEF_STEREO_COUNT>
0

> <PUBCHEM_ISOTOPIC_ATOM_COUNT>
0

> <PUBCHEM_COMPONENT_COUNT>
1

> <PUBCHEM_CACTVS_TAUTO_COUNT>
1

> <PUBCHEM_COORDINATE_TYPE>
1
5
255

> <PUBCHEM_BONDANNOTATIONS>
11  12  8
4  5  8
4  8  8
5  9  8
8  11  8
9  12  8

$$$$
67032434
  -OEChem-12041212272D

 26 27  0     0  0  0  0  0  0999 V2000
    7.0738   -0.0622    0.0000 Cl  0  0  0  0  0  0  0  0  0  0  0  0
    3.8186    1.1226    0.0000 Cl  0  0  0  0  0  0  0  0  0  0  0  0
    2.9114    0.2038    0.0000 O   0  0  0  0  0  0  0  0  0  0  0  0
    2.6106   -1.5018    0.0000 N   0  0  0  0  0  0  0  0  0  0  0  0
    5.1042   -0.4095    0.0000 C   0  0  0  0  0  0  0  0  0  0  0  0
    5.4462    0.5302    0.0000 C   0  0  0  0  0  0  0  0  0  0  0  0
    4.2382   -0.9095    0.0000 C   0  0  0  0  0  0  0  0  0  0  0  0
    5.9702   -0.9095    0.0000 C   0  0  0  0  0  0  0  0  0  0  0  0
    6.4310    0.7038    0.0000 C   0  0  0  0  0  0  0  0  0  0  0  0
    4.8034    1.2962    0.0000 C   0  0  0  0  0  0  0  0  0  0  0  0
    4.2382   -1.9095    0.0000 C   0  0  0  0  0  0  0  0  0  0  0  0
    5.9702   -1.9095    0.0000 C   0  0  0  0  0  0  0  0  0  0  0  0
    5.1042   -2.4095    0.0000 C   0  0  0  0  0  0  0  0  0  0  0  0
    6.7730    1.6435    0.0000 C   0  0  0  0  0  0  0  0  0  0  0  0
    5.1454    2.2359    0.0000 C   0  0  0  0  0  0  0  0  0  0  0  0
    3.2534   -0.7359    0.0000 C   0  0  0  0  0  0  0  0  0  0  0  0
    6.1303    2.4095    0.0000 C   0  0  0  0  0  0  0  0  0  0  0  0
    6.5072   -0.5995    0.0000 H   0  0  0  0  0  0  0  0  0  0  0  0
    3.7012   -2.2195    0.0000 H   0  0  0  0  0  0  0  0  0  0  0  0
    6.5072   -2.2195    0.0000 H   0  0  0  0  0  0  0  0  0  0  0  0
    5.1042   -3.0295    0.0000 H   0  0  0  0  0  0  0  0  0  0  0  0
    7.3836    1.7512    0.0000 H   0  0  0  0  0  0  0  0  0  0  0  0
    4.7469    2.7108    0.0000 H   0  0  0  0  0  0  0  0  0  0  0  0
    6.3423    2.9922    0.0000 H   0  0  0  0  0  0  0  0  0  0  0  0
    2.0000   -1.3943    0.0000 H   0  0  0  0  0  0  0  0  0  0  0  0
    2.8226   -2.0845    0.0000 H   0  0  0  0  0  0  0  0  0  0  0  0
  1  9  1  0  0  0  0
  2 10  1  0  0  0  0
  3 16  2  0  0  0  0
  4 16  1  0  0  0  0
  4 25  1  0  0  0  0
  4 26  1  0  0  0  0
  5  6  1  0  0  0  0
  5  7  1  0  0  0  0
  5  8  2  0  0  0  0
  6  9  2  0  0  0  0
  6 10  1  0  0  0  0
  7 11  2  0  0  0  0
  7 16  1  0  0  0  0
  8 12  1  0  0  0  0
  8 18  1  0  0  0  0
  9 14  1  0  0  0  0
 10 15  2  0  0  0  0
 11 13  1  0  0  0  0
 11 19  1  0  0  0  0
 12 13  2  0  0  0  0
 12 20  1  0  0  0  0
 13 21  1  0  0  0  0
 14 17  2  0  0  0  0
 14 22  1  0  0  0  0
 15 17  1  0  0  0  0
 15 23  1  0  0  0  0
 17 24  1  0  0  0  0
M  END
> <PUBCHEM_COMPOUND_CID>
67032434

> <PUBCHEM_COMPOUND_CANONICALIZED>
1

> <PUBCHEM_CACTVS_COMPLEXITY>
275

> <PUBCHEM_CACTVS_HBOND_ACCEPTOR>
1

> <PUBCHEM_CACTVS_HBOND_DONOR>
1

> <PUBCHEM_CACTVS_ROTATABLE_BOND>
2

> <PUBCHEM_CACTVS_SUBSKEYS>
AAADccByIAAGAAAAAAAAAAAAAAAAAAAAAAAwYAAAAAAAAAABQAAAHgIQAAAADAKBmCAwAIBAAACIAiFSEACCAAAkBQAIiAEABsgIIDKBlxGAIQBggAAIiYcYiMCOgAAAAACRAAAAAAAAASIAAAAAAAAAAA==

> <PUBCHEM_IUPAC_OPENEYE_NAME>
2-(2,6-dichlorophenyl)benzamide

> <PUBCHEM_IUPAC_CAS_NAME>
2-(2,6-dichlorophenyl)benzamide

> <PUBCHEM_IUPAC_NAME>
2-(2,6-dichlorophenyl)benzamide

> <PUBCHEM_IUPAC_SYSTEMATIC_NAME>
2-[2,6-bis(chloranyl)phenyl]benzamide

> <PUBCHEM_IUPAC_TRADITIONAL_NAME>
2-(2,6-dichlorophenyl)benzamide

> <PUBCHEM_IUPAC_INCHI>
InChI=1S/C13H9Cl2NO/c14-10-6-3-7-11(15)12(10)8-4-1-2-5-9(8)13(16)17/h1-7H,(H2,16,17)

> <PUBCHEM_IUPAC_INCHIKEY>
SGUPGOSIVYIIJE-UHFFFAOYSA-N

> <PUBCHEM_XLOGP3>
3.7

> <PUBCHEM_EXACT_MASS>
265.006119

> <PUBCHEM_MOLECULAR_FORMULA>
C13H9Cl2NO

> <PUBCHEM_MOLECULAR_WEIGHT>
266.12266

> <PUBCHEM_OPENEYE_CAN_SMILES>
C1=CC=C(C(=C1)C2=C(C=CC=C2Cl)Cl)C(=O)N

> <PUBCHEM_OPENEYE_ISO_SMILES>
C1=CC=C(C(=C1)C2=C(C=CC=C2Cl)Cl)C(=O)N

> <PUBCHEM_CACTVS_TPSA>
43.1

> <PUBCHEM_MONOISOTOPIC_WEIGHT>
265.006119

> <PUBCHEM_TOTAL_CHARGE>
0

> <PUBCHEM_HEAVY_ATOM_COUNT>
17

> <PUBCHEM_ATOM_DEF_STEREO_COUNT>
0

> <PUBCHEM_ATOM_UDEF_STEREO_COUNT>
0

> <PUBCHEM_BOND_DEF_STEREO_COUNT>
0

> <PUBCHEM_BOND_UDEF_STEREO_COUNT>
0

> <PUBCHEM_ISOTOPIC_ATOM_COUNT>
0

> <PUBCHEM_COMPONENT_COUNT>
1

> <PUBCHEM_CACTVS_TAUTO_COUNT>
2

> <PUBCHEM_COORDINATE_TYPE>
1
5
255

> <PUBCHEM_BONDANNOTATIONS>
10  15  8
11  13  8
12  13  8
14  17  8
15  17  8
5  7  8
5  8  8
6  10  8
6  9  8
7  11  8
8  12  8
9  14  8

$$$$
67032781
  -OEChem-12041212272D

 21 22  0     0  0  0  0  0  0999 V2000
    8.1301   -0.2348    0.0000 I   0  0  0  0  0  0  0  0  0  0  0  0
    2.0000   -0.7073    0.0000 O   0  0  0  0  0  0  0  0  0  0  0  0
    3.7320   -0.7073    0.0000 N   0  0  0  0  0  0  0  0  0  0  0  0
    4.5981   -0.2073    0.0000 C   0  0  0  0  0  0  0  0  0  0  0  0
    4.5981    0.7927    0.0000 C   0  0  0  0  0  0  0  0  0  0  0  0
    6.3981   -0.2281    0.0000 C   0  0  0  0  0  0  0  0  0  0  0  0
    5.4920   -0.7420    0.0000 C   0  0  0  0  0  0  0  0  0  0  0  0
    5.4920    1.3273    0.0000 C   0  0  0  0  0  0  0  0  0  0  0  0
    6.3981    0.8135    0.0000 C   0  0  0  0  0  0  0  0  0  0  0  0
    3.7320    1.2927    0.0000 C   0  0  0  0  0  0  0  0  0  0  0  0
    2.8660   -0.2073    0.0000 C   0  0  0  0  0  0  0  0  0  0  0  0
    2.8660    0.7927    0.0000 C   0  0  0  0  0  0  0  0  0  0  0  0
    7.2622   -0.7315    0.0000 C   0  0  0  0  0  0  0  0  0  0  0  0
    5.4848   -1.3620    0.0000 H   0  0  0  0  0  0  0  0  0  0  0  0
    5.4848    1.9473    0.0000 H   0  0  0  0  0  0  0  0  0  0  0  0
    6.9338    1.1256    0.0000 H   0  0  0  0  0  0  0  0  0  0  0  0
    3.7320   -1.3273    0.0000 H   0  0  0  0  0  0  0  0  0  0  0  0
    3.7320    1.9127    0.0000 H   0  0  0  0  0  0  0  0  0  0  0  0
    2.3291    1.1027    0.0000 H   0  0  0  0  0  0  0  0  0  0  0  0
    6.8618   -1.2049    0.0000 H   0  0  0  0  0  0  0  0  0  0  0  0
    7.6589   -1.2080    0.0000 H   0  0  0  0  0  0  0  0  0  0  0  0
  1 13  1  0  0  0  0
  2 11  2  0  0  0  0
  3  4  1  0  0  0  0
  3 11  1  0  0  0  0
  3 17  1  0  0  0  0
  4  5  2  0  0  0  0
  4  7  1  0  0  0  0
  5  8  1  0  0  0  0
  5 10  1  0  0  0  0
  6  7  2  0  0  0  0
  6  9  1  0  0  0  0
  6 13  1  0  0  0  0
  7 14  1  0  0  0  0
  8  9  2  0  0  0  0
  8 15  1  0  0  0  0
  9 16  1  0  0  0  0
 10 12  2  0  0  0  0
 10 18  1  0  0  0  0
 11 12  1  0  0  0  0
 12 19  1  0  0  0  0
 13 20  1  0  0  0  0
 13 21  1  0  0  0  0
M  END
> <PUBCHEM_COMPOUND_CID>
67032781

> <PUBCHEM_COMPOUND_CANONICALIZED>
1

> <PUBCHEM_CACTVS_COMPLEXITY>
239

> <PUBCHEM_CACTVS_HBOND_ACCEPTOR>
1

> <PUBCHEM_CACTVS_HBOND_DONOR>
1

> <PUBCHEM_CACTVS_ROTATABLE_BOND>
1

> <PUBCHEM_CACTVS_SUBSKEYS>
AAADccByIAAAAgAAAAAAAAAAAAAAAAAAAAAwQAAAAAAAAACBAAAAHgAwAAAADAiDmAAwwILAAACIAiVSUACCAAAhAgAIiAAAZMgIICLAkZGEIAhglADIyYcQgAAOQAAAQAACAACAAACAAAQAAAAAAAAAAA==

> <PUBCHEM_IUPAC_OPENEYE_NAME>
7-(iodomethyl)-1H-quinolin-2-one

> <PUBCHEM_IUPAC_CAS_NAME>
7-(iodomethyl)-1H-quinolin-2-one

> <PUBCHEM_IUPAC_NAME>
7-(iodomethyl)-1H-quinolin-2-one

> <PUBCHEM_IUPAC_SYSTEMATIC_NAME>
7-(iodanylmethyl)-1H-quinolin-2-one

> <PUBCHEM_IUPAC_TRADITIONAL_NAME>
7-(iodomethyl)carbostyril

> <PUBCHEM_IUPAC_INCHI>
InChI=1S/C10H8INO/c11-6-7-1-2-8-3-4-10(13)12-9(8)5-7/h1-5H,6H2,(H,12,13)

> <PUBCHEM_IUPAC_INCHIKEY>
PYJSUECPDCCPIQ-UHFFFAOYSA-N

> <PUBCHEM_XLOGP3>
2.3

> <PUBCHEM_EXACT_MASS>
284.965062

> <PUBCHEM_MOLECULAR_FORMULA>
C10H8INO

> <PUBCHEM_MOLECULAR_WEIGHT>
285.08109

> <PUBCHEM_OPENEYE_CAN_SMILES>
C1=CC(=CC2=C1C=CC(=O)N2)CI

> <PUBCHEM_OPENEYE_ISO_SMILES>
C1=CC(=CC2=C1C=CC(=O)N2)CI

> <PUBCHEM_CACTVS_TPSA>
29.1

> <PUBCHEM_MONOISOTOPIC_WEIGHT>
284.965062

> <PUBCHEM_TOTAL_CHARGE>
0

> <PUBCHEM_HEAVY_ATOM_COUNT>
13

> <PUBCHEM_ATOM_DEF_STEREO_COUNT>
0

> <PUBCHEM_ATOM_UDEF_STEREO_COUNT>
0

> <PUBCHEM_BOND_DEF_STEREO_COUNT>
0

> <PUBCHEM_BOND_UDEF_STEREO_COUNT>
0

> <PUBCHEM_ISOTOPIC_ATOM_COUNT>
0

> <PUBCHEM_COMPONENT_COUNT>
1

> <PUBCHEM_CACTVS_TAUTO_COUNT>
2

> <PUBCHEM_COORDINATE_TYPE>
1
5
255

> <PUBCHEM_BONDANNOTATIONS>
10  12  8
11  12  8
3  11  8
3  4  8
4  5  8
4  7  8
5  10  8
5  8  8
6  7  8
6  9  8
8  9  8

$$$$
67034471
  -OEChem-12041212272D

 25 26  0     1  0  0  0  0  0999 V2000
    6.6353    0.0304    0.0000 O   0  0  0  0  0  0  0  0  0  0  0  0
    4.9889    0.5685    0.0000 N   0  0  0  0  0  0  0  0  0  0  0  0
    6.2781    1.7253    0.0000 N   0  0  0  0  0  0  0  0  0  0  0  0
    4.6783   -0.3820    0.0000 C   0  0  1  0  0  0  0  0  0  0  0  0
    5.2619   -1.1867    0.0000 C   0  0  0  0  0  0  0  0  0  0  0  0
    4.6783   -1.9915    0.0000 C   0  0  0  0  0  0  0  0  0  0  0  0
    3.7320   -0.6867    0.0000 C   0  0  0  0  0  0  0  0  0  0  0  0
    3.7320   -1.6867    0.0000 C   0  0  0  0  0  0  0  0  0  0  0  0
    2.8660   -0.1867    0.0000 C   0  0  0  0  0  0  0  0  0  0  0  0
    2.8660   -2.1867    0.0000 C   0  0  0  0  0  0  0  0  0  0  0  0
    2.0000   -0.6867    0.0000 C   0  0  0  0  0  0  0  0  0  0  0  0
    2.0000   -1.6867    0.0000 C   0  0  0  0  0  0  0  0  0  0  0  0
    5.9674    0.7747    0.0000 C   0  0  0  0  0  0  0  0  0  0  0  0
    5.2908   -0.2858    0.0000 H   0  0  0  0  0  0  0  0  0  0  0  0
    5.7227   -1.6015    0.0000 H   0  0  0  0  0  0  0  0  0  0  0  0
    5.7227   -0.7720    0.0000 H   0  0  0  0  0  0  0  0  0  0  0  0
    4.4272   -2.5584    0.0000 H   0  0  0  0  0  0  0  0  0  0  0  0
    5.2156   -2.3007    0.0000 H   0  0  0  0  0  0  0  0  0  0  0  0
    4.5749    1.0300    0.0000 H   0  0  0  0  0  0  0  0  0  0  0  0
    2.8660    0.4333    0.0000 H   0  0  0  0  0  0  0  0  0  0  0  0
    2.8660   -2.8067    0.0000 H   0  0  0  0  0  0  0  0  0  0  0  0
    1.4631   -0.3767    0.0000 H   0  0  0  0  0  0  0  0  0  0  0  0
    1.4631   -1.9967    0.0000 H   0  0  0  0  0  0  0  0  0  0  0  0
    6.8848    1.8531    0.0000 H   0  0  0  0  0  0  0  0  0  0  0  0
    5.8640    2.1867    0.0000 H   0  0  0  0  0  0  0  0  0  0  0  0
  1 13  2  0  0  0  0
  4  2  1  1  0  0  0
  2 13  1  0  0  0  0
  2 19  1  0  0  0  0
  3 13  1  0  0  0  0
  3 24  1  0  0  0  0
  3 25  1  0  0  0  0
  4  5  1  0  0  0  0
  4  7  1  0  0  0  0
  4 14  1  0  0  0  0
  5  6  1  0  0  0  0
  5 15  1  0  0  0  0
  5 16  1  0  0  0  0
  6  8  1  0  0  0  0
  6 17  1  0  0  0  0
  6 18  1  0  0  0  0
  7  8  1  0  0  0  0
  7  9  2  0  0  0  0
  8 10  2  0  0  0  0
  9 11  1  0  0  0  0
  9 20  1  0  0  0  0
 10 12  1  0  0  0  0
 10 21  1  0  0  0  0
 11 12  2  0  0  0  0
 11 22  1  0  0  0  0
 12 23  1  0  0  0  0
M  END
> <PUBCHEM_COMPOUND_CID>
67034471

> <PUBCHEM_COMPOUND_CANONICALIZED>
1

> <PUBCHEM_CACTVS_COMPLEXITY>
205

> <PUBCHEM_CACTVS_HBOND_ACCEPTOR>
1

> <PUBCHEM_CACTVS_HBOND_DONOR>
2

> <PUBCHEM_CACTVS_ROTATABLE_BOND>
1

> <PUBCHEM_CACTVS_SUBSKEYS>
AAADccBzIAAAAAAAAAAAAAAAAAAAAYAAAAAwAAAAAAAAAGABAAAAHgAQAAAADCjBGAQxAILAAACIAiBCEACCAAAgAAAIiIAIBIiIICKAkRGEIAhglgIIiAcQgIAOgAAAAAAQAAAAAAAAACAAACAACQAAAA==

> <PUBCHEM_IUPAC_OPENEYE_NAME>
[(1S)-indan-1-yl]urea

> <PUBCHEM_IUPAC_CAS_NAME>
[(1S)-2,3-dihydro-1H-inden-1-yl]urea

> <PUBCHEM_IUPAC_NAME>
[(1S)-2,3-dihydro-1H-inden-1-yl]urea

> <PUBCHEM_IUPAC_SYSTEMATIC_NAME>
1-[(1S)-2,3-dihydro-1H-inden-1-yl]urea

> <PUBCHEM_IUPAC_TRADITIONAL_NAME>
[(1S)-indan-1-yl]urea

> <PUBCHEM_IUPAC_INCHI>
InChI=1S/C10H12N2O/c11-10(13)12-9-6-5-7-3-1-2-4-8(7)9/h1-4,9H,5-6H2,(H3,11,12,13)/t9-/m0/s1

> <PUBCHEM_IUPAC_INCHIKEY>
WAQCADIPNPIBPZ-VIFPVBQESA-N

> <PUBCHEM_XLOGP3>
1.4

> <PUBCHEM_EXACT_MASS>
176.094963

> <PUBCHEM_MOLECULAR_FORMULA>
C10H12N2O

> <PUBCHEM_MOLECULAR_WEIGHT>
176.21508

> <PUBCHEM_OPENEYE_CAN_SMILES>
C1CC2=CC=CC=C2C1NC(=O)N

> <PUBCHEM_OPENEYE_ISO_SMILES>
C1CC2=CC=CC=C2[C@H]1NC(=O)N

> <PUBCHEM_CACTVS_TPSA>
55.1

> <PUBCHEM_MONOISOTOPIC_WEIGHT>
176.094963

> <PUBCHEM_TOTAL_CHARGE>
0

> <PUBCHEM_HEAVY_ATOM_COUNT>
13

> <PUBCHEM_ATOM_DEF_STEREO_COUNT>
1

> <PUBCHEM_ATOM_UDEF_STEREO_COUNT>
0

> <PUBCHEM_BOND_DEF_STEREO_COUNT>
0

> <PUBCHEM_BOND_UDEF_STEREO_COUNT>
0

> <PUBCHEM_ISOTOPIC_ATOM_COUNT>
0

> <PUBCHEM_COMPONENT_COUNT>
1

> <PUBCHEM_CACTVS_TAUTO_COUNT>
3

> <PUBCHEM_COORDINATE_TYPE>
1
5
255

> <PUBCHEM_BONDANNOTATIONS>
10  12  8
11  12  8
4  2  5
7  8  8
7  9  8
8  10  8
9  11  8

$$$$
67035432
  -OEChem-12041212272D

 25 26  0     1  0  0  0  0  0999 V2000
    6.6353    0.0304    0.0000 O   0  0  0  0  0  0  0  0  0  0  0  0
    4.9889    0.5685    0.0000 N   0  0  0  0  0  0  0  0  0  0  0  0
    6.2781    1.7253    0.0000 N   0  0  0  0  0  0  0  0  0  0  0  0
    4.6783   -0.3820    0.0000 C   0  0  2  0  0  0  0  0  0  0  0  0
    5.2619   -1.1867    0.0000 C   0  0  0  0  0  0  0  0  0  0  0  0
    4.6783   -1.9915    0.0000 C   0  0  0  0  0  0  0  0  0  0  0  0
    3.7320   -0.6867    0.0000 C   0  0  0  0  0  0  0  0  0  0  0  0
    3.7320   -1.6867    0.0000 C   0  0  0  0  0  0  0  0  0  0  0  0
    2.8660   -0.1867    0.0000 C   0  0  0  0  0  0  0  0  0  0  0  0
    2.8660   -2.1867    0.0000 C   0  0  0  0  0  0  0  0  0  0  0  0
    2.0000   -0.6867    0.0000 C   0  0  0  0  0  0  0  0  0  0  0  0
    2.0000   -1.6867    0.0000 C   0  0  0  0  0  0  0  0  0  0  0  0
    5.9674    0.7747    0.0000 C   0  0  0  0  0  0  0  0  0  0  0  0
    5.2908   -0.2858    0.0000 H   0  0  0  0  0  0  0  0  0  0  0  0
    5.7227   -1.6015    0.0000 H   0  0  0  0  0  0  0  0  0  0  0  0
    5.7227   -0.7720    0.0000 H   0  0  0  0  0  0  0  0  0  0  0  0
    4.4272   -2.5584    0.0000 H   0  0  0  0  0  0  0  0  0  0  0  0
    5.2156   -2.3007    0.0000 H   0  0  0  0  0  0  0  0  0  0  0  0
    4.5749    1.0300    0.0000 H   0  0  0  0  0  0  0  0  0  0  0  0
    2.8660    0.4333    0.0000 H   0  0  0  0  0  0  0  0  0  0  0  0
    2.8660   -2.8067    0.0000 H   0  0  0  0  0  0  0  0  0  0  0  0
    1.4631   -0.3767    0.0000 H   0  0  0  0  0  0  0  0  0  0  0  0
    1.4631   -1.9967    0.0000 H   0  0  0  0  0  0  0  0  0  0  0  0
    6.8848    1.8531    0.0000 H   0  0  0  0  0  0  0  0  0  0  0  0
    5.8640    2.1867    0.0000 H   0  0  0  0  0  0  0  0  0  0  0  0
  1 13  2  0  0  0  0
  4  2  1  6  0  0  0
  2 13  1  0  0  0  0
  2 19  1  0  0  0  0
  3 13  1  0  0  0  0
  3 24  1  0  0  0  0
  3 25  1  0  0  0  0
  4  5  1  0  0  0  0
  4  7  1  0  0  0  0
  4 14  1  0  0  0  0
  5  6  1  0  0  0  0
  5 15  1  0  0  0  0
  5 16  1  0  0  0  0
  6  8  1  0  0  0  0
  6 17  1  0  0  0  0
  6 18  1  0  0  0  0
  7  8  1  0  0  0  0
  7  9  2  0  0  0  0
  8 10  2  0  0  0  0
  9 11  1  0  0  0  0
  9 20  1  0  0  0  0
 10 12  1  0  0  0  0
 10 21  1  0  0  0  0
 11 12  2  0  0  0  0
 11 22  1  0  0  0  0
 12 23  1  0  0  0  0
M  END
> <PUBCHEM_COMPOUND_CID>
67035432

> <PUBCHEM_COMPOUND_CANONICALIZED>
1

> <PUBCHEM_CACTVS_COMPLEXITY>
205

> <PUBCHEM_CACTVS_HBOND_ACCEPTOR>
1

> <PUBCHEM_CACTVS_HBOND_DONOR>
2

> <PUBCHEM_CACTVS_ROTATABLE_BOND>
1

> <PUBCHEM_CACTVS_SUBSKEYS>
AAADccBzIAAAAAAAAAAAAAAAAAAAAYAAAAAwAAAAAAAAAGABAAAAHgAQAAAADCjBGAQxAILAAACIAiBCEACCAAAgAAAIiIAIBIiIICKAkRGEIAhglgIIiAcQgIAOgAAAAAAQAAAAAAAAACAAACAACQAAAA==

> <PUBCHEM_IUPAC_OPENEYE_NAME>
[(1R)-indan-1-yl]urea

> <PUBCHEM_IUPAC_CAS_NAME>
[(1R)-2,3-dihydro-1H-inden-1-yl]urea

> <PUBCHEM_IUPAC_NAME>
[(1R)-2,3-dihydro-1H-inden-1-yl]urea

> <PUBCHEM_IUPAC_SYSTEMATIC_NAME>
1-[(1R)-2,3-dihydro-1H-inden-1-yl]urea

> <PUBCHEM_IUPAC_TRADITIONAL_NAME>
[(1R)-indan-1-yl]urea

> <PUBCHEM_IUPAC_INCHI>
InChI=1S/C10H12N2O/c11-10(13)12-9-6-5-7-3-1-2-4-8(7)9/h1-4,9H,5-6H2,(H3,11,12,13)/t9-/m1/s1

> <PUBCHEM_IUPAC_INCHIKEY>
WAQCADIPNPIBPZ-SECBINFHSA-N

> <PUBCHEM_XLOGP3>
1.4

> <PUBCHEM_EXACT_MASS>
176.094963

> <PUBCHEM_MOLECULAR_FORMULA>
C10H12N2O

> <PUBCHEM_MOLECULAR_WEIGHT>
176.21508

> <PUBCHEM_OPENEYE_CAN_SMILES>
C1CC2=CC=CC=C2C1NC(=O)N

> <PUBCHEM_OPENEYE_ISO_SMILES>
C1CC2=CC=CC=C2[C@@H]1NC(=O)N

> <PUBCHEM_CACTVS_TPSA>
55.1

> <PUBCHEM_MONOISOTOPIC_WEIGHT>
176.094963

> <PUBCHEM_TOTAL_CHARGE>
0

> <PUBCHEM_HEAVY_ATOM_COUNT>
13

> <PUBCHEM_ATOM_DEF_STEREO_COUNT>
1

> <PUBCHEM_ATOM_UDEF_STEREO_COUNT>
0

> <PUBCHEM_BOND_DEF_STEREO_COUNT>
0

> <PUBCHEM_BOND_UDEF_STEREO_COUNT>
0

> <PUBCHEM_ISOTOPIC_ATOM_COUNT>
0

> <PUBCHEM_COMPONENT_COUNT>
1

> <PUBCHEM_CACTVS_TAUTO_COUNT>
3

> <PUBCHEM_COORDINATE_TYPE>
1
5
255

> <PUBCHEM_BONDANNOTATIONS>
10  12  8
11  12  8
4  2  6
7  8  8
7  9  8
8  10  8
9  11  8

$$$$
67036292
  -OEChem-12041212272D

 27 27  0     0  0  0  0  0  0999 V2000
    2.0000   -1.5000    0.0000 I   0  0  0  0  0  0  0  0  0  0  0  0
    5.4641   -0.5000    0.0000 O   0  0  0  0  0  0  0  0  0  0  0  0
    3.7320   -0.5000    0.0000 N   0  0  0  0  0  0  0  0  0  0  0  0
    4.5981    3.0000    0.0000 C   0  0  0  0  0  0  0  0  0  0  0  0
    5.4641    3.5000    0.0000 C   0  0  0  0  0  0  0  0  0  0  0  0
    3.7320    3.5000    0.0000 C   0  0  0  0  0  0  0  0  0  0  0  0
    3.7320   -1.5000    0.0000 C   0  0  0  0  0  0  0  0  0  0  0  0
    2.8660   -2.0000    0.0000 C   0  0  0  0  0  0  0  0  0  0  0  0
    4.5981   -2.0000    0.0000 C   0  0  0  0  0  0  0  0  0  0  0  0
    4.5981    2.0000    0.0000 C   0  0  0  0  0  0  0  0  0  0  0  0
    2.8660   -3.0000    0.0000 C   0  0  0  0  0  0  0  0  0  0  0  0
    4.5981   -3.0000    0.0000 C   0  0  0  0  0  0  0  0  0  0  0  0
    3.7320   -3.5000    0.0000 C   0  0  0  0  0  0  0  0  0  0  0  0
    4.5981    0.0000    0.0000 C   0  0  0  0  0  0  0  0  0  0  0  0
    4.5981    1.0000    0.0000 C   0  0  0  0  0  0  0  0  0  0  0  0
    4.5981    3.6200    0.0000 H   0  0  0  0  0  0  0  0  0  0  0  0
    4.0420    4.0369    0.0000 H   0  0  0  0  0  0  0  0  0  0  0  0
    3.1951    3.8100    0.0000 H   0  0  0  0  0  0  0  0  0  0  0  0
    5.7741    2.9631    0.0000 H   0  0  0  0  0  0  0  0  0  0  0  0
    6.0010    3.8100    0.0000 H   0  0  0  0  0  0  0  0  0  0  0  0
    5.1541    4.0369    0.0000 H   0  0  0  0  0  0  0  0  0  0  0  0
    3.4220    2.9631    0.0000 H   0  0  0  0  0  0  0  0  0  0  0  0
    5.1350   -1.6900    0.0000 H   0  0  0  0  0  0  0  0  0  0  0  0
    3.1951   -0.1900    0.0000 H   0  0  0  0  0  0  0  0  0  0  0  0
    2.3291   -3.3100    0.0000 H   0  0  0  0  0  0  0  0  0  0  0  0
    5.1350   -3.3100    0.0000 H   0  0  0  0  0  0  0  0  0  0  0  0
    3.7320   -4.1200    0.0000 H   0  0  0  0  0  0  0  0  0  0  0  0
  1  8  1  0  0  0  0
  2 14  2  0  0  0  0
  3  7  1  0  0  0  0
  3 14  1  0  0  0  0
  3 24  1  0  0  0  0
  4  5  1  0  0  0  0
  4  6  1  0  0  0  0
  4 10  1  0  0  0  0
  4 16  1  0  0  0  0
  5 19  1  0  0  0  0
  5 20  1  0  0  0  0
  5 21  1  0  0  0  0
  6 17  1  0  0  0  0
  6 18  1  0  0  0  0
  6 22  1  0  0  0  0
  7  8  1  0  0  0  0
  7  9  2  0  0  0  0
  8 11  2  0  0  0  0
  9 12  1  0  0  0  0
  9 23  1  0  0  0  0
 10 15  3  0  0  0  0
 11 13  1  0  0  0  0
 11 25  1  0  0  0  0
 12 13  2  0  0  0  0
 12 26  1  0  0  0  0
 13 27  1  0  0  0  0
 14 15  1  0  0  0  0
M  END
> <PUBCHEM_COMPOUND_CID>
67036292

> <PUBCHEM_COMPOUND_CANONICALIZED>
1

> <PUBCHEM_CACTVS_COMPLEXITY>
287

> <PUBCHEM_CACTVS_HBOND_ACCEPTOR>
1

> <PUBCHEM_CACTVS_HBOND_DONOR>
1

> <PUBCHEM_CACTVS_ROTATABLE_BOND>
1

> <PUBCHEM_CACTVS_SUBSKEYS>
AAADccByIAAAAgAAAAAAAAAAAAAAAAAAAAAwAAAAAAAAAAABAAAAHgAwAAAADQiDkAAywILAAADIECVSUAiCAAAhAgAIiAAAZIgIICLAkZGEIAhglADIyAcQAAAAAAAAAAAAAAAAAAAAAAAAAAAAAAAAAA==

> <PUBCHEM_IUPAC_OPENEYE_NAME>
N-(2-iodophenyl)-4-methyl-pent-2-ynamide

> <PUBCHEM_IUPAC_CAS_NAME>
N-(2-iodophenyl)-4-methyl-2-pentynamide

> <PUBCHEM_IUPAC_NAME>
N-(2-iodophenyl)-4-methylpent-2-ynamide

> <PUBCHEM_IUPAC_SYSTEMATIC_NAME>
N-(2-iodanylphenyl)-4-methyl-pent-2-ynamide

> <PUBCHEM_IUPAC_TRADITIONAL_NAME>
N-(2-iodophenyl)-4-methyl-pent-2-ynamide

> <PUBCHEM_IUPAC_INCHI>
InChI=1S/C12H12INO/c1-9(2)7-8-12(15)14-11-6-4-3-5-10(11)13/h3-6,9H,1-2H3,(H,14,15)

> <PUBCHEM_IUPAC_INCHIKEY>
BCUNZMJXQPMLPM-UHFFFAOYSA-N

> <PUBCHEM_XLOGP3>
3.3

> <PUBCHEM_EXACT_MASS>
312.996362

> <PUBCHEM_MOLECULAR_FORMULA>
C12H12INO

> <PUBCHEM_MOLECULAR_WEIGHT>
313.13425

> <PUBCHEM_OPENEYE_CAN_SMILES>
CC(C)C#CC(=O)NC1=CC=CC=C1I

> <PUBCHEM_OPENEYE_ISO_SMILES>
CC(C)C#CC(=O)NC1=CC=CC=C1I

> <PUBCHEM_CACTVS_TPSA>
29.1

> <PUBCHEM_MONOISOTOPIC_WEIGHT>
312.996362

> <PUBCHEM_TOTAL_CHARGE>
0

> <PUBCHEM_HEAVY_ATOM_COUNT>
15

> <PUBCHEM_ATOM_DEF_STEREO_COUNT>
0

> <PUBCHEM_ATOM_UDEF_STEREO_COUNT>
0

> <PUBCHEM_BOND_DEF_STEREO_COUNT>
0

> <PUBCHEM_BOND_UDEF_STEREO_COUNT>
0

> <PUBCHEM_ISOTOPIC_ATOM_COUNT>
0

> <PUBCHEM_COMPONENT_COUNT>
1

> <PUBCHEM_CACTVS_TAUTO_COUNT>
2

> <PUBCHEM_COORDINATE_TYPE>
1
5
255

> <PUBCHEM_BONDANNOTATIONS>
11  13  8
12  13  8
7  8  8
7  9  8
8  11  8
9  12  8

$$$$
67042450
  -OEChem-12041212282D

 32 33  0     0  0  0  0  0  0999 V2000
   10.5920   -0.1970    0.0000 O   0  0  0  0  0  0  0  0  0  0  0  0
    9.0084    0.6077    0.0000 N   0  0  0  0  0  0  0  0  0  0  0  0
    5.4641   -1.1970    0.0000 C   0  0  0  0  0  0  0  0  0  0  0  0
    4.5981   -0.6970    0.0000 C   0  0  0  0  0  0  0  0  0  0  0  0
    6.3301   -0.6970    0.0000 C   0  0  0  0  0  0  0  0  0  0  0  0
    3.7320   -1.1970    0.0000 C   0  0  0  0  0  0  0  0  0  0  0  0
    8.0622   -0.6970    0.0000 C   0  0  0  0  0  0  0  0  0  0  0  0
    8.0622    0.3030    0.0000 C   0  0  0  0  0  0  0  0  0  0  0  0
    7.1962   -1.1970    0.0000 C   0  0  0  0  0  0  0  0  0  0  0  0
    9.0084   -1.0018    0.0000 C   0  0  0  0  0  0  0  0  0  0  0  0
    2.8660   -0.6970    0.0000 C   0  0  0  0  0  0  0  0  0  0  0  0
    6.3301    0.3030    0.0000 C   0  0  0  0  0  0  0  0  0  0  0  0
    7.1962    0.8030    0.0000 C   0  0  0  0  0  0  0  0  0  0  0  0
    9.5920   -0.1970    0.0000 C   0  0  0  0  0  0  0  0  0  0  0  0
    2.0000   -1.1970    0.0000 C   0  0  0  0  0  0  0  0  0  0  0  0
    5.0656   -1.6720    0.0000 H   0  0  0  0  0  0  0  0  0  0  0  0
    5.8626   -1.6720    0.0000 H   0  0  0  0  0  0  0  0  0  0  0  0
    4.9966   -0.2221    0.0000 H   0  0  0  0  0  0  0  0  0  0  0  0
    4.1996   -0.2221    0.0000 H   0  0  0  0  0  0  0  0  0  0  0  0
    3.3335   -1.6720    0.0000 H   0  0  0  0  0  0  0  0  0  0  0  0
    4.1306   -1.6720    0.0000 H   0  0  0  0  0  0  0  0  0  0  0  0
    7.1962   -1.8170    0.0000 H   0  0  0  0  0  0  0  0  0  0  0  0
    8.7574   -1.5687    0.0000 H   0  0  0  0  0  0  0  0  0  0  0  0
    9.5458   -1.3110    0.0000 H   0  0  0  0  0  0  0  0  0  0  0  0
    3.2646   -0.2221    0.0000 H   0  0  0  0  0  0  0  0  0  0  0  0
    2.4675   -0.2221    0.0000 H   0  0  0  0  0  0  0  0  0  0  0  0
    5.7932    0.6130    0.0000 H   0  0  0  0  0  0  0  0  0  0  0  0
    7.1962    1.4230    0.0000 H   0  0  0  0  0  0  0  0  0  0  0  0
    9.2010    1.1970    0.0000 H   0  0  0  0  0  0  0  0  0  0  0  0
    1.6900   -0.6601    0.0000 H   0  0  0  0  0  0  0  0  0  0  0  0
    1.4631   -1.5070    0.0000 H   0  0  0  0  0  0  0  0  0  0  0  0
    2.3100   -1.7340    0.0000 H   0  0  0  0  0  0  0  0  0  0  0  0
  1 14  2  0  0  0  0
  2  8  1  0  0  0  0
  2 14  1  0  0  0  0
  2 29  1  0  0  0  0
  3  4  1  0  0  0  0
  3  5  1  0  0  0  0
  3 16  1  0  0  0  0
  3 17  1  0  0  0  0
  4  6  1  0  0  0  0
  4 18  1  0  0  0  0
  4 19  1  0  0  0  0
  5  9  2  0  0  0  0
  5 12  1  0  0  0  0
  6 11  1  0  0  0  0
  6 20  1  0  0  0  0
  6 21  1  0  0  0  0
  7  8  2  0  0  0  0
  7  9  1  0  0  0  0
  7 10  1  0  0  0  0
  8 13  1  0  0  0  0
  9 22  1  0  0  0  0
 10 14  1  0  0  0  0
 10 23  1  0  0  0  0
 10 24  1  0  0  0  0
 11 15  1  0  0  0  0
 11 25  1  0  0  0  0
 11 26  1  0  0  0  0
 12 13  2  0  0  0  0
 12 27  1  0  0  0  0
 13 28  1  0  0  0  0
 15 30  1  0  0  0  0
 15 31  1  0  0  0  0
 15 32  1  0  0  0  0
M  END
> <PUBCHEM_COMPOUND_CID>
67042450

> <PUBCHEM_COMPOUND_CANONICALIZED>
1

> <PUBCHEM_CACTVS_COMPLEXITY>
227

> <PUBCHEM_CACTVS_HBOND_ACCEPTOR>
1

> <PUBCHEM_CACTVS_HBOND_DONOR>
1

> <PUBCHEM_CACTVS_ROTATABLE_BOND>
4

> <PUBCHEM_CACTVS_SUBSKEYS>
AAADceByIAAAAAAAAAAAAAAAAAAAAWAAAAAwAAAAAAAAAFgBAAAAHgAQAAAADAiBmAAywILAAACIAiVSUACCAAAhAgAIiAEAZIgIIDLAlZGEIAhglADIyAcciMCOCAACAAACAAAQAAQAAAQAAAAAAAAAAA==

> <PUBCHEM_IUPAC_OPENEYE_NAME>
5-pentylindolin-2-one

> <PUBCHEM_IUPAC_CAS_NAME>
5-pentyl-1,3-dihydroindol-2-one

> <PUBCHEM_IUPAC_NAME>
5-pentyl-1,3-dihydroindol-2-one

> <PUBCHEM_IUPAC_SYSTEMATIC_NAME>
5-pentyl-1,3-dihydroindol-2-one

> <PUBCHEM_IUPAC_TRADITIONAL_NAME>
5-amyloxindole

> <PUBCHEM_IUPAC_INCHI>
InChI=1S/C13H17NO/c1-2-3-4-5-10-6-7-12-11(8-10)9-13(15)14-12/h6-8H,2-5,9H2,1H3,(H,14,15)

> <PUBCHEM_IUPAC_INCHIKEY>
XKGVQVKJFXBIGE-UHFFFAOYSA-N

> <PUBCHEM_XLOGP3>
3.6

> <PUBCHEM_EXACT_MASS>
203.131014

> <PUBCHEM_MOLECULAR_FORMULA>
C13H17NO

> <PUBCHEM_MOLECULAR_WEIGHT>
203.28018

> <PUBCHEM_OPENEYE_CAN_SMILES>
CCCCCC1=CC2=C(C=C1)NC(=O)C2

> <PUBCHEM_OPENEYE_ISO_SMILES>
CCCCCC1=CC2=C(C=C1)NC(=O)C2

> <PUBCHEM_CACTVS_TPSA>
29.1

> <PUBCHEM_MONOISOTOPIC_WEIGHT>
203.131014

> <PUBCHEM_TOTAL_CHARGE>
0

> <PUBCHEM_HEAVY_ATOM_COUNT>
15

> <PUBCHEM_ATOM_DEF_STEREO_COUNT>
0

> <PUBCHEM_ATOM_UDEF_STEREO_COUNT>
0

> <PUBCHEM_BOND_DEF_STEREO_COUNT>
0

> <PUBCHEM_BOND_UDEF_STEREO_COUNT>
0

> <PUBCHEM_ISOTOPIC_ATOM_COUNT>
0

> <PUBCHEM_COMPONENT_COUNT>
1

> <PUBCHEM_CACTVS_TAUTO_COUNT>
3

> <PUBCHEM_COORDINATE_TYPE>
1
5
255

> <PUBCHEM_BONDANNOTATIONS>
12  13  8
5  12  8
5  9  8
7  8  8
7  9  8
8  13  8

$$$$
67044176
  -OEChem-12041212282D

 33 34  0     0  0  0  0  0  0999 V2000
    4.6783   -0.8327    0.0000 N   0  0  0  0  0  0  0  0  0  0  0  0
    4.9889    0.1178    0.0000 N   0  0  0  0  0  0  0  0  0  0  0  0
    6.2781    1.2745    0.0000 C   0  0  0  0  0  0  0  0  0  0  0  0
    5.9674    0.3240    0.0000 C   0  0  0  0  0  0  0  0  0  0  0  0
    7.2566    1.4807    0.0000 C   0  0  0  0  0  0  0  0  0  0  0  0
    7.5673    2.4313    0.0000 C   0  0  0  0  0  0  0  0  0  0  0  0
    3.7320   -1.1375    0.0000 C   0  0  0  0  0  0  0  0  0  0  0  0
    3.7320   -2.1375    0.0000 C   0  0  0  0  0  0  0  0  0  0  0  0
    5.2619   -1.6375    0.0000 C   0  0  0  0  0  0  0  0  0  0  0  0
    4.6783   -2.4422    0.0000 C   0  0  0  0  0  0  0  0  0  0  0  0
    2.8660   -0.6375    0.0000 C   0  0  0  0  0  0  0  0  0  0  0  0
    8.5458    2.6375    0.0000 C   0  0  0  0  0  0  0  0  0  0  0  0
    2.8660   -2.6375    0.0000 C   0  0  0  0  0  0  0  0  0  0  0  0
    2.0000   -1.1375    0.0000 C   0  0  0  0  0  0  0  0  0  0  0  0
    2.0000   -2.1375    0.0000 C   0  0  0  0  0  0  0  0  0  0  0  0
    6.2575    1.8942    0.0000 H   0  0  0  0  0  0  0  0  0  0  0  0
    5.6643    1.3619    0.0000 H   0  0  0  0  0  0  0  0  0  0  0  0
    5.9880   -0.2957    0.0000 H   0  0  0  0  0  0  0  0  0  0  0  0
    6.5812    0.2366    0.0000 H   0  0  0  0  0  0  0  0  0  0  0  0
    7.2772    0.8611    0.0000 H   0  0  0  0  0  0  0  0  0  0  0  0
    7.8704    1.3934    0.0000 H   0  0  0  0  0  0  0  0  0  0  0  0
    4.5749    0.5792    0.0000 H   0  0  0  0  0  0  0  0  0  0  0  0
    7.5467    3.0509    0.0000 H   0  0  0  0  0  0  0  0  0  0  0  0
    6.9534    2.5186    0.0000 H   0  0  0  0  0  0  0  0  0  0  0  0
    5.8819   -1.6375    0.0000 H   0  0  0  0  0  0  0  0  0  0  0  0
    4.8709   -3.0315    0.0000 H   0  0  0  0  0  0  0  0  0  0  0  0
    2.8660   -0.0175    0.0000 H   0  0  0  0  0  0  0  0  0  0  0  0
    8.6736    2.0308    0.0000 H   0  0  0  0  0  0  0  0  0  0  0  0
    9.1524    2.7653    0.0000 H   0  0  0  0  0  0  0  0  0  0  0  0
    8.4179    3.2442    0.0000 H   0  0  0  0  0  0  0  0  0  0  0  0
    2.8660   -3.2575    0.0000 H   0  0  0  0  0  0  0  0  0  0  0  0
    1.4631   -0.8275    0.0000 H   0  0  0  0  0  0  0  0  0  0  0  0
    1.4631   -2.4475    0.0000 H   0  0  0  0  0  0  0  0  0  0  0  0
  1  2  1  0  0  0  0
  1  7  1  0  0  0  0
  1  9  1  0  0  0  0
  2  4  1  0  0  0  0
  2 22  1  0  0  0  0
  3  4  1  0  0  0  0
  3  5  1  0  0  0  0
  3 16  1  0  0  0  0
  3 17  1  0  0  0  0
  4 18  1  0  0  0  0
  4 19  1  0  0  0  0
  5  6  1  0  0  0  0
  5 20  1  0  0  0  0
  5 21  1  0  0  0  0
  6 12  1  0  0  0  0
  6 23  1  0  0  0  0
  6 24  1  0  0  0  0
  7  8  1  0  0  0  0
  7 11  2  0  0  0  0
  8 10  1  0  0  0  0
  8 13  2  0  0  0  0
  9 10  2  0  0  0  0
  9 25  1  0  0  0  0
 10 26  1  0  0  0  0
 11 14  1  0  0  0  0
 11 27  1  0  0  0  0
 12 28  1  0  0  0  0
 12 29  1  0  0  0  0
 12 30  1  0  0  0  0
 13 15  1  0  0  0  0
 13 31  1  0  0  0  0
 14 15  2  0  0  0  0
 14 32  1  0  0  0  0
 15 33  1  0  0  0  0
M  END
> <PUBCHEM_COMPOUND_CID>
67044176

> <PUBCHEM_COMPOUND_CANONICALIZED>
1

> <PUBCHEM_CACTVS_COMPLEXITY>
181

> <PUBCHEM_CACTVS_HBOND_ACCEPTOR>
1

> <PUBCHEM_CACTVS_HBOND_DONOR>
1

> <PUBCHEM_CACTVS_ROTATABLE_BOND>
5

> <PUBCHEM_CACTVS_SUBSKEYS>
AAADceBzAAAAAAAAAAAAAAAAAAAAAWAAAAAwAAAAAAAAAFgB8AAAHAAYAAAADAjBHgQ+wPJqEACgAzRnRACShCAxAiAY+KA4ZJgIIOLAkZGEIAhgmADIyAcQgIAOAAAAAAACAAAAAAAAAAQAAAAAAAAAAA==

> <PUBCHEM_IUPAC_OPENEYE_NAME>
N-pentylindol-1-amine

> <PUBCHEM_IUPAC_CAS_NAME>
N-pentyl-1-indolamine

> <PUBCHEM_IUPAC_NAME>
N-pentylindol-1-amine

> <PUBCHEM_IUPAC_SYSTEMATIC_NAME>
N-pentylindol-1-amine

> <PUBCHEM_IUPAC_TRADITIONAL_NAME>
amyl(indol-1-yl)amine

> <PUBCHEM_IUPAC_INCHI>
InChI=1S/C13H18N2/c1-2-3-6-10-14-15-11-9-12-7-4-5-8-13(12)15/h4-5,7-9,11,14H,2-3,6,10H2,1H3

> <PUBCHEM_IUPAC_INCHIKEY>
UUDYJUKBJLNKBV-UHFFFAOYSA-N

> <PUBCHEM_XLOGP3>
4.9

> <PUBCHEM_EXACT_MASS>
202.146999

> <PUBCHEM_MOLECULAR_FORMULA>
C13H18N2

> <PUBCHEM_MOLECULAR_WEIGHT>
202.29542

> <PUBCHEM_OPENEYE_CAN_SMILES>
CCCCCNN1C=CC2=CC=CC=C21

> <PUBCHEM_OPENEYE_ISO_SMILES>
CCCCCNN1C=CC2=CC=CC=C21

> <PUBCHEM_CACTVS_TPSA>
17

> <PUBCHEM_MONOISOTOPIC_WEIGHT>
202.146999

> <PUBCHEM_TOTAL_CHARGE>
0

> <PUBCHEM_HEAVY_ATOM_COUNT>
15

> <PUBCHEM_ATOM_DEF_STEREO_COUNT>
0

> <PUBCHEM_ATOM_UDEF_STEREO_COUNT>
0

> <PUBCHEM_BOND_DEF_STEREO_COUNT>
0

> <PUBCHEM_BOND_UDEF_STEREO_COUNT>
0

> <PUBCHEM_ISOTOPIC_ATOM_COUNT>
0

> <PUBCHEM_COMPONENT_COUNT>
1

> <PUBCHEM_CACTVS_TAUTO_COUNT>
1

> <PUBCHEM_COORDINATE_TYPE>
1
5
255

> <PUBCHEM_BONDANNOTATIONS>
1  7  8
1  9  8
11  14  8
13  15  8
14  15  8
7  11  8
7  8  8
8  10  8
8  13  8
9  10  8

$$$$
67049825
  -OEChem-12041212292D

 25 27  0     0  0  0  0  0  0999 V2000
    6.2619    1.3660    0.0000 Br  0  0  0  0  0  0  0  0  0  0  0  0
    9.2619   -0.3660    0.0000 Cl  0  0  0  0  0  0  0  0  0  0  0  0
    4.6783    0.4387    0.0000 N   0  0  0  0  0  0  0  0  0  0  0  0
    4.6783   -1.1708    0.0000 N   0  0  0  0  0  0  0  0  0  0  0  0
    3.7320    0.1340    0.0000 C   0  0  0  0  0  0  0  0  0  0  0  0
    5.2619   -0.3660    0.0000 C   0  0  0  0  0  0  0  0  0  0  0  0
    3.7320   -0.8660    0.0000 C   0  0  0  0  0  0  0  0  0  0  0  0
    6.2619   -0.3660    0.0000 C   0  0  0  0  0  0  0  0  0  0  0  0
    2.8660    0.6340    0.0000 C   0  0  0  0  0  0  0  0  0  0  0  0
    2.8660   -1.3660    0.0000 C   0  0  0  0  0  0  0  0  0  0  0  0
    6.7619    0.5000    0.0000 C   0  0  0  0  0  0  0  0  0  0  0  0
    6.7619   -1.2320    0.0000 C   0  0  0  0  0  0  0  0  0  0  0  0
    2.0000    0.1340    0.0000 C   0  0  0  0  0  0  0  0  0  0  0  0
    2.0000   -0.8660    0.0000 C   0  0  0  0  0  0  0  0  0  0  0  0
    7.7619    0.5000    0.0000 C   0  0  0  0  0  0  0  0  0  0  0  0
    7.7619   -1.2320    0.0000 C   0  0  0  0  0  0  0  0  0  0  0  0
    8.2619   -0.3660    0.0000 C   0  0  0  0  0  0  0  0  0  0  0  0
    4.8709    1.0280    0.0000 H   0  0  0  0  0  0  0  0  0  0  0  0
    2.8660    1.2540    0.0000 H   0  0  0  0  0  0  0  0  0  0  0  0
    2.8660   -1.9860    0.0000 H   0  0  0  0  0  0  0  0  0  0  0  0
    6.4519   -1.7690    0.0000 H   0  0  0  0  0  0  0  0  0  0  0  0
    1.4631    0.4440    0.0000 H   0  0  0  0  0  0  0  0  0  0  0  0
    1.4631   -1.1760    0.0000 H   0  0  0  0  0  0  0  0  0  0  0  0
    8.0719    1.0369    0.0000 H   0  0  0  0  0  0  0  0  0  0  0  0
    8.0719   -1.7690    0.0000 H   0  0  0  0  0  0  0  0  0  0  0  0
  1 11  1  0  0  0  0
  2 17  1  0  0  0  0
  3  5  1  0  0  0  0
  3  6  1  0  0  0  0
  3 18  1  0  0  0  0
  4  6  2  0  0  0  0
  4  7  1  0  0  0  0
  5  7  1  0  0  0  0
  5  9  2  0  0  0  0
  6  8  1  0  0  0  0
  7 10  2  0  0  0  0
  8 11  2  0  0  0  0
  8 12  1  0  0  0  0
  9 13  1  0  0  0  0
  9 19  1  0  0  0  0
 10 14  1  0  0  0  0
 10 20  1  0  0  0  0
 11 15  1  0  0  0  0
 12 16  2  0  0  0  0
 12 21  1  0  0  0  0
 13 14  2  0  0  0  0
 13 22  1  0  0  0  0
 14 23  1  0  0  0  0
 15 17  2  0  0  0  0
 15 24  1  0  0  0  0
 16 17  1  0  0  0  0
 16 25  1  0  0  0  0
M  END
> <PUBCHEM_COMPOUND_CID>
67049825

> <PUBCHEM_COMPOUND_CANONICALIZED>
1

> <PUBCHEM_CACTVS_COMPLEXITY>
276

> <PUBCHEM_CACTVS_HBOND_ACCEPTOR>
1

> <PUBCHEM_CACTVS_HBOND_DONOR>
1

> <PUBCHEM_CACTVS_ROTATABLE_BOND>
1

> <PUBCHEM_CACTVS_SUBSKEYS>
AAADccBzAAAEEAAAAAAAAAAAAAAAAWAAAAAwYAAAAAAAAFgB9AAAHAJQAAABrAqBHyAx0LbJkACgAyZiZACCgC2hF6QJmSAwdriIaKLBm5GUIAhokALIyjcQgAAOBAAAAABAgCAIAAAAAIEAQAAAAAAAAA==

> <PUBCHEM_IUPAC_OPENEYE_NAME>
2-(2-bromo-4-chloro-phenyl)-1H-benzimidazole

> <PUBCHEM_IUPAC_CAS_NAME>
2-(2-bromo-4-chlorophenyl)-1H-benzimidazole

> <PUBCHEM_IUPAC_NAME>
2-(2-bromo-4-chlorophenyl)-1H-benzimidazole

> <PUBCHEM_IUPAC_SYSTEMATIC_NAME>
2-(2-bromanyl-4-chloranyl-phenyl)-1H-benzimidazole

> <PUBCHEM_IUPAC_TRADITIONAL_NAME>
2-(2-bromo-4-chloro-phenyl)-1H-benzimidazole

> <PUBCHEM_IUPAC_INCHI>
InChI=1S/C13H8BrClN2/c14-10-7-8(15)5-6-9(10)13-16-11-3-1-2-4-12(11)17-13/h1-7H,(H,16,17)

> <PUBCHEM_IUPAC_INCHIKEY>
CTDDQFRQSNMFKL-UHFFFAOYSA-N

> <PUBCHEM_XLOGP3>
4

> <PUBCHEM_EXACT_MASS>
305.955938

> <PUBCHEM_MOLECULAR_FORMULA>
C13H8BrClN2

> <PUBCHEM_MOLECULAR_WEIGHT>
307.57302

> <PUBCHEM_OPENEYE_CAN_SMILES>
C1=CC=C2C(=C1)NC(=N2)C3=C(C=C(C=C3)Cl)Br

> <PUBCHEM_OPENEYE_ISO_SMILES>
C1=CC=C2C(=C1)NC(=N2)C3=C(C=C(C=C3)Cl)Br

> <PUBCHEM_CACTVS_TPSA>
28.7

> <PUBCHEM_MONOISOTOPIC_WEIGHT>
305.955938

> <PUBCHEM_TOTAL_CHARGE>
0

> <PUBCHEM_HEAVY_ATOM_COUNT>
17

> <PUBCHEM_ATOM_DEF_STEREO_COUNT>
0

> <PUBCHEM_ATOM_UDEF_STEREO_COUNT>
0

> <PUBCHEM_BOND_DEF_STEREO_COUNT>
0

> <PUBCHEM_BOND_UDEF_STEREO_COUNT>
0

> <PUBCHEM_ISOTOPIC_ATOM_COUNT>
0

> <PUBCHEM_COMPONENT_COUNT>
1

> <PUBCHEM_CACTVS_TAUTO_COUNT>
1

> <PUBCHEM_COORDINATE_TYPE>
1
5
255

> <PUBCHEM_BONDANNOTATIONS>
10  14  8
11  15  8
12  16  8
13  14  8
15  17  8
16  17  8
3  5  8
3  6  8
4  6  8
4  7  8
5  7  8
5  9  8
7  10  8
8  11  8
8  12  8
9  13  8

$$$$
