63253216
  -OEChem-11301218222D

 32 34  0     0  0  0  0  0  0999 V2000
    3.5827   -0.3652    0.0000 N   0  0  0  0  0  0  0  0  0  0  0  0
    7.1270    1.4395    0.0000 N   0  0  0  0  0  0  0  0  0  0  0  0
    6.1808    0.1348    0.0000 C   0  0  0  0  0  0  0  0  0  0  0  0
    7.1270   -0.1699    0.0000 C   0  0  0  0  0  0  0  0  0  0  0  0
    6.1808    1.1348    0.0000 C   0  0  0  0  0  0  0  0  0  0  0  0
    7.7106    0.6348    0.0000 C   0  0  0  0  0  0  0  0  0  0  0  0
    4.4487    0.1348    0.0000 C   0  0  0  0  0  0  0  0  0  0  0  0
    5.3147   -0.3652    0.0000 C   0  0  0  0  0  0  0  0  0  0  0  0
    5.3147    1.6348    0.0000 C   0  0  0  0  0  0  0  0  0  0  0  0
    4.4487    1.1348    0.0000 C   0  0  0  0  0  0  0  0  0  0  0  0
    2.6691    0.0415    0.0000 C   0  0  0  0  0  0  0  0  0  0  0  0
    3.4782   -1.3597    0.0000 C   0  0  0  0  0  0  0  0  0  0  0  0
    2.5000   -1.5676    0.0000 C   0  0  0  0  0  0  0  0  0  0  0  0
    2.0000   -0.7016    0.0000 C   0  0  0  0  0  0  0  0  0  0  0  0
    2.4612    1.0197    0.0000 C   0  0  0  0  0  0  0  0  0  0  0  0
    4.2213   -2.0288    0.0000 C   0  0  0  0  0  0  0  0  0  0  0  0
    6.8759   -0.7368    0.0000 H   0  0  0  0  0  0  0  0  0  0  0  0
    7.6644   -0.4792    0.0000 H   0  0  0  0  0  0  0  0  0  0  0  0
    8.1714    0.2201    0.0000 H   0  0  0  0  0  0  0  0  0  0  0  0
    8.1714    1.0495    0.0000 H   0  0  0  0  0  0  0  0  0  0  0  0
    5.3147   -0.9852    0.0000 H   0  0  0  0  0  0  0  0  0  0  0  0
    7.3196    2.0288    0.0000 H   0  0  0  0  0  0  0  0  0  0  0  0
    5.3147    2.2548    0.0000 H   0  0  0  0  0  0  0  0  0  0  0  0
    3.9118    1.4448    0.0000 H   0  0  0  0  0  0  0  0  0  0  0  0
    1.3834   -0.6368    0.0000 H   0  0  0  0  0  0  0  0  0  0  0  0
    2.2478   -2.1340    0.0000 H   0  0  0  0  0  0  0  0  0  0  0  0
    3.0677    1.1486    0.0000 H   0  0  0  0  0  0  0  0  0  0  0  0
    2.3323    1.6261    0.0000 H   0  0  0  0  0  0  0  0  0  0  0  0
    3.8064   -2.4896    0.0000 H   0  0  0  0  0  0  0  0  0  0  0  0
    4.6820   -2.4437    0.0000 H   0  0  0  0  0  0  0  0  0  0  0  0
    4.6362   -1.5681    0.0000 H   0  0  0  0  0  0  0  0  0  0  0  0
    1.8548    0.8908    0.0000 H   0  0  0  0  0  0  0  0  0  0  0  0
  1  7  1  0  0  0  0
  1 11  1  0  0  0  0
  1 12  1  0  0  0  0
  2  5  1  0  0  0  0
  2  6  1  0  0  0  0
  2 22  1  0  0  0  0
  3  4  1  0  0  0  0
  3  5  2  0  0  0  0
  3  8  1  0  0  0  0
  4  6  1  0  0  0  0
  4 17  1  0  0  0  0
  4 18  1  0  0  0  0
  5  9  1  0  0  0  0
  6 19  1  0  0  0  0
  6 20  1  0  0  0  0
  7  8  2  0  0  0  0
  7 10  1  0  0  0  0
  8 21  1  0  0  0  0
  9 10  2  0  0  0  0
  9 23  1  0  0  0  0
 10 24  1  0  0  0  0
 11 14  2  0  0  0  0
 11 15  1  0  0  0  0
 12 13  2  0  0  0  0
 12 16  1  0  0  0  0
 13 14  1  0  0  0  0
 13 26  1  0  0  0  0
 14 25  1  0  0  0  0
 15 27  1  0  0  0  0
 15 28  1  0  0  0  0
 15 32  1  0  0  0  0
 16 29  1  0  0  0  0
 16 30  1  0  0  0  0
 16 31  1  0  0  0  0
M  END
> <PUBCHEM_COMPOUND_CID>
63253216

> <PUBCHEM_COMPOUND_CANONICALIZED>
1

> <PUBCHEM_CACTVS_COMPLEXITY>
243

> <PUBCHEM_CACTVS_HBOND_ACCEPTOR>
1

> <PUBCHEM_CACTVS_HBOND_DONOR>
1

> <PUBCHEM_CACTVS_ROTATABLE_BOND>
1

> <PUBCHEM_CACTVS_SUBSKEYS>
AAADceBzAAAAAAAAAAAAAAAAAAAAAWLAAAAwAAAAAAAAAFgBwAAAHAAQAAAADAjBHgQywJPMEACgAyRiRACCgCAhAiAImKA4ZJgIIOLAkZGEIAhgkADIyAcQgIAOAACAQAACAAAAAQCAAAQAAAAAAAAAAA==

> <PUBCHEM_IUPAC_OPENEYE_NAME>
5-(2,5-dimethylpyrrol-1-yl)indoline

> <PUBCHEM_IUPAC_CAS_NAME>
5-(2,5-dimethyl-1-pyrrolyl)-2,3-dihydro-1H-indole

> <PUBCHEM_IUPAC_NAME>
5-(2,5-dimethylpyrrol-1-yl)-2,3-dihydro-1H-indole

> <PUBCHEM_IUPAC_SYSTEMATIC_NAME>
5-(2,5-dimethylpyrrol-1-yl)-2,3-dihydro-1H-indole

> <PUBCHEM_IUPAC_TRADITIONAL_NAME>
5-(2,5-dimethylpyrrol-1-yl)indoline

> <PUBCHEM_IUPAC_INCHI>
InChI=1S/C14H16N2/c1-10-3-4-11(2)16(10)13-5-6-14-12(9-13)7-8-15-14/h3-6,9,15H,7-8H2,1-2H3

> <PUBCHEM_IUPAC_INCHIKEY>
CROKDEMJHXYSFU-UHFFFAOYSA-N

> <PUBCHEM_XLOGP3>
3.4

> <PUBCHEM_EXACT_MASS>
212.131349

> <PUBCHEM_MOLECULAR_FORMULA>
C14H16N2

> <PUBCHEM_MOLECULAR_WEIGHT>
212.29024

> <PUBCHEM_OPENEYE_CAN_SMILES>
CC1=CC=C(N1C2=CC3=C(C=C2)NCC3)C

> <PUBCHEM_OPENEYE_ISO_SMILES>
CC1=CC=C(N1C2=CC3=C(C=C2)NCC3)C

> <PUBCHEM_CACTVS_TPSA>
17

> <PUBCHEM_MONOISOTOPIC_WEIGHT>
212.131349

> <PUBCHEM_TOTAL_CHARGE>
0

> <PUBCHEM_HEAVY_ATOM_COUNT>
16

> <PUBCHEM_ATOM_DEF_STEREO_COUNT>
0

> <PUBCHEM_ATOM_UDEF_STEREO_COUNT>
0

> <PUBCHEM_BOND_DEF_STEREO_COUNT>
0

> <PUBCHEM_BOND_UDEF_STEREO_COUNT>
0

> <PUBCHEM_ISOTOPIC_ATOM_COUNT>
0

> <PUBCHEM_COMPONENT_COUNT>
1

> <PUBCHEM_CACTVS_TAUTO_COUNT>
1

> <PUBCHEM_COORDINATE_TYPE>
1
5
255

> <PUBCHEM_BONDANNOTATIONS>
1  11  8
1  12  8
11  14  8
12  13  8
13  14  8
3  5  8
3  8  8
5  9  8
7  10  8
7  8  8
9  10  8

$$$$
63253217
  -OEChem-11301218222D

 26 28  0     0  0  0  0  0  0999 V2000
    7.1270    1.2089    0.0000 N   0  0  0  0  0  0  0  0  0  0  0  0
    3.5827   -0.5958    0.0000 N   0  0  0  0  0  0  0  0  0  0  0  0
    6.1808   -0.0958    0.0000 C   0  0  0  0  0  0  0  0  0  0  0  0
    7.1270   -0.4005    0.0000 C   0  0  0  0  0  0  0  0  0  0  0  0
    7.7106    0.4042    0.0000 C   0  0  0  0  0  0  0  0  0  0  0  0
    6.1808    0.9042    0.0000 C   0  0  0  0  0  0  0  0  0  0  0  0
    5.3147   -0.5958    0.0000 C   0  0  0  0  0  0  0  0  0  0  0  0
    4.4487   -0.0958    0.0000 C   0  0  0  0  0  0  0  0  0  0  0  0
    5.3147    1.4042    0.0000 C   0  0  0  0  0  0  0  0  0  0  0  0
    4.4487    0.9042    0.0000 C   0  0  0  0  0  0  0  0  0  0  0  0
    2.6691   -0.1891    0.0000 C   0  0  0  0  0  0  0  0  0  0  0  0
    3.4782   -1.5903    0.0000 C   0  0  0  0  0  0  0  0  0  0  0  0
    2.5000   -1.7982    0.0000 C   0  0  0  0  0  0  0  0  0  0  0  0
    2.0000   -0.9322    0.0000 C   0  0  0  0  0  0  0  0  0  0  0  0
    6.8759   -0.9674    0.0000 H   0  0  0  0  0  0  0  0  0  0  0  0
    7.6644   -0.7098    0.0000 H   0  0  0  0  0  0  0  0  0  0  0  0
    8.1714   -0.0105    0.0000 H   0  0  0  0  0  0  0  0  0  0  0  0
    8.1714    0.8189    0.0000 H   0  0  0  0  0  0  0  0  0  0  0  0
    7.3196    1.7982    0.0000 H   0  0  0  0  0  0  0  0  0  0  0  0
    5.3147   -1.2158    0.0000 H   0  0  0  0  0  0  0  0  0  0  0  0
    5.3147    2.0242    0.0000 H   0  0  0  0  0  0  0  0  0  0  0  0
    3.9118    1.2142    0.0000 H   0  0  0  0  0  0  0  0  0  0  0  0
    2.5402    0.4174    0.0000 H   0  0  0  0  0  0  0  0  0  0  0  0
    3.9389   -2.0052    0.0000 H   0  0  0  0  0  0  0  0  0  0  0  0
    1.3834   -0.8674    0.0000 H   0  0  0  0  0  0  0  0  0  0  0  0
    2.2478   -2.3646    0.0000 H   0  0  0  0  0  0  0  0  0  0  0  0
  1  5  1  0  0  0  0
  1  6  1  0  0  0  0
  1 19  1  0  0  0  0
  2  8  1  0  0  0  0
  2 11  1  0  0  0  0
  2 12  1  0  0  0  0
  3  4  1  0  0  0  0
  3  6  2  0  0  0  0
  3  7  1  0  0  0  0
  4  5  1  0  0  0  0
  4 15  1  0  0  0  0
  4 16  1  0  0  0  0
  5 17  1  0  0  0  0
  5 18  1  0  0  0  0
  6  9  1  0  0  0  0
  7  8  2  0  0  0  0
  7 20  1  0  0  0  0
  8 10  1  0  0  0  0
  9 10  2  0  0  0  0
  9 21  1  0  0  0  0
 10 22  1  0  0  0  0
 11 14  2  0  0  0  0
 11 23  1  0  0  0  0
 12 13  2  0  0  0  0
 12 24  1  0  0  0  0
 13 14  1  0  0  0  0
 13 26  1  0  0  0  0
 14 25  1  0  0  0  0
M  END
> <PUBCHEM_COMPOUND_CID>
63253217

> <PUBCHEM_COMPOUND_CANONICALIZED>
1

> <PUBCHEM_CACTVS_COMPLEXITY>
199

> <PUBCHEM_CACTVS_HBOND_ACCEPTOR>
1

> <PUBCHEM_CACTVS_HBOND_DONOR>
1

> <PUBCHEM_CACTVS_ROTATABLE_BOND>
1

> <PUBCHEM_CACTVS_SUBSKEYS>
AAADccBzAAAAAAAAAAAAAAAAAAAAAWLAAAAwAAAAAAAAAFgBwAAAHAAQAAAADAjBGgQ8wJPMEACgAjRnRACCgCAxAiAI2KA4ZJgIIOLAkZGEIAhgkADIyAcQgIAOAACAQAACAAAAAQCAAAQAAAAAAAAAAA==

> <PUBCHEM_IUPAC_OPENEYE_NAME>
5-pyrrol-1-ylindoline

> <PUBCHEM_IUPAC_CAS_NAME>
5-(1-pyrrolyl)-2,3-dihydro-1H-indole

> <PUBCHEM_IUPAC_NAME>
5-pyrrol-1-yl-2,3-dihydro-1H-indole

> <PUBCHEM_IUPAC_SYSTEMATIC_NAME>
5-pyrrol-1-yl-2,3-dihydro-1H-indole

> <PUBCHEM_IUPAC_TRADITIONAL_NAME>
5-pyrrol-1-ylindoline

> <PUBCHEM_IUPAC_INCHI>
InChI=1S/C12H12N2/c1-2-8-14(7-1)11-3-4-12-10(9-11)5-6-13-12/h1-4,7-9,13H,5-6H2

> <PUBCHEM_IUPAC_INCHIKEY>
QJXVRHSFTANOGA-UHFFFAOYSA-N

> <PUBCHEM_XLOGP3>
2.6

> <PUBCHEM_EXACT_MASS>
184.100048

> <PUBCHEM_MOLECULAR_FORMULA>
C12H12N2

> <PUBCHEM_MOLECULAR_WEIGHT>
184.23708

> <PUBCHEM_OPENEYE_CAN_SMILES>
C1CNC2=C1C=C(C=C2)N3C=CC=C3

> <PUBCHEM_OPENEYE_ISO_SMILES>
C1CNC2=C1C=C(C=C2)N3C=CC=C3

> <PUBCHEM_CACTVS_TPSA>
17

> <PUBCHEM_MONOISOTOPIC_WEIGHT>
184.100048

> <PUBCHEM_TOTAL_CHARGE>
0

> <PUBCHEM_HEAVY_ATOM_COUNT>
14

> <PUBCHEM_ATOM_DEF_STEREO_COUNT>
0

> <PUBCHEM_ATOM_UDEF_STEREO_COUNT>
0

> <PUBCHEM_BOND_DEF_STEREO_COUNT>
0

> <PUBCHEM_BOND_UDEF_STEREO_COUNT>
0

> <PUBCHEM_ISOTOPIC_ATOM_COUNT>
0

> <PUBCHEM_COMPONENT_COUNT>
1

> <PUBCHEM_CACTVS_TAUTO_COUNT>
1

> <PUBCHEM_COORDINATE_TYPE>
1
5
255

> <PUBCHEM_BONDANNOTATIONS>
11  14  8
12  13  8
13  14  8
2  11  8
2  12  8
3  6  8
3  7  8
6  9  8
7  8  8
8  10  8
9  10  8

$$$$
63259005
  -OEChem-11301218232D

 20 20  0     0  0  0  0  0  0999 V2000
    5.4641    2.5000    0.0000 Br  0  0  0  0  0  0  0  0  0  0  0  0
    2.0000   -2.5000    0.0000 Cl  0  0  0  0  0  0  0  0  0  0  0  0
    3.7320    0.5000    0.0000 O   0  0  0  0  0  0  0  0  0  0  0  0
    3.7320   -0.5000    0.0000 C   0  0  0  0  0  0  0  0  0  0  0  0
    2.8660   -1.0000    0.0000 C   0  0  0  0  0  0  0  0  0  0  0  0
    4.5981   -1.0000    0.0000 C   0  0  0  0  0  0  0  0  0  0  0  0
    4.5981    1.0000    0.0000 C   0  0  0  0  0  0  0  0  0  0  0  0
    2.8660   -2.0000    0.0000 C   0  0  0  0  0  0  0  0  0  0  0  0
    4.5981   -2.0000    0.0000 C   0  0  0  0  0  0  0  0  0  0  0  0
    3.7320   -2.5000    0.0000 C   0  0  0  0  0  0  0  0  0  0  0  0
    4.5981    2.0000    0.0000 C   0  0  0  0  0  0  0  0  0  0  0  0
    3.7320    2.5000    0.0000 C   0  0  0  0  0  0  0  0  0  0  0  0
    2.3291   -0.6900    0.0000 H   0  0  0  0  0  0  0  0  0  0  0  0
    5.1350   -0.6900    0.0000 H   0  0  0  0  0  0  0  0  0  0  0  0
    4.8101    0.4174    0.0000 H   0  0  0  0  0  0  0  0  0  0  0  0
    5.2087    1.1077    0.0000 H   0  0  0  0  0  0  0  0  0  0  0  0
    5.1350   -2.3100    0.0000 H   0  0  0  0  0  0  0  0  0  0  0  0
    3.7320   -3.1200    0.0000 H   0  0  0  0  0  0  0  0  0  0  0  0
    3.7320    3.1200    0.0000 H   0  0  0  0  0  0  0  0  0  0  0  0
    3.1951    2.1900    0.0000 H   0  0  0  0  0  0  0  0  0  0  0  0
  1 11  1  0  0  0  0
  2  8  1  0  0  0  0
  3  4  1  0  0  0  0
  3  7  1  0  0  0  0
  4  5  2  0  0  0  0
  4  6  1  0  0  0  0
  5  8  1  0  0  0  0
  5 13  1  0  0  0  0
  6  9  2  0  0  0  0
  6 14  1  0  0  0  0
  7 11  1  0  0  0  0
  7 15  1  0  0  0  0
  7 16  1  0  0  0  0
  8 10  2  0  0  0  0
  9 10  1  0  0  0  0
  9 17  1  0  0  0  0
 10 18  1  0  0  0  0
 11 12  2  0  0  0  0
 12 19  1  0  0  0  0
 12 20  1  0  0  0  0
M  END
> <PUBCHEM_COMPOUND_CID>
63259005

> <PUBCHEM_COMPOUND_CANONICALIZED>
1

> <PUBCHEM_CACTVS_COMPLEXITY>
161

> <PUBCHEM_CACTVS_HBOND_ACCEPTOR>
1

> <PUBCHEM_CACTVS_HBOND_DONOR>
0

> <PUBCHEM_CACTVS_ROTATABLE_BOND>
3

> <PUBCHEM_CACTVS_SUBSKEYS>
AAADccBwIAAEEAAAAAAAAAAAAAAAAAAAAAAwAAAAAAAAAAABAAAAGgJAAAABiAagkCIwBoAABACAACBCAAACCAAgJQAIiAAGCogMJiKFMxqCOCCkwBEIqAeAQAAAAAAAAQAAAAAAAAACAAAAAAAAAAAAAA==

> <PUBCHEM_IUPAC_OPENEYE_NAME>
1-(2-bromoallyloxy)-3-chloro-benzene

> <PUBCHEM_IUPAC_CAS_NAME>
1-(2-bromoprop-2-enoxy)-3-chlorobenzene

> <PUBCHEM_IUPAC_NAME>
1-(2-bromoprop-2-enoxy)-3-chlorobenzene

> <PUBCHEM_IUPAC_SYSTEMATIC_NAME>
1-(2-bromanylprop-2-enoxy)-3-chloranyl-benzene

> <PUBCHEM_IUPAC_TRADITIONAL_NAME>
1-(2-bromoallyloxy)-3-chloro-benzene

> <PUBCHEM_IUPAC_INCHI>
InChI=1S/C9H8BrClO/c1-7(10)6-12-9-4-2-3-8(11)5-9/h2-5H,1,6H2

> <PUBCHEM_IUPAC_INCHIKEY>
SWRYFNCNGSASJB-UHFFFAOYSA-N

> <PUBCHEM_XLOGP3>
4.1

> <PUBCHEM_EXACT_MASS>
245.944705

> <PUBCHEM_MOLECULAR_FORMULA>
C9H8BrClO

> <PUBCHEM_MOLECULAR_WEIGHT>
247.51622

> <PUBCHEM_OPENEYE_CAN_SMILES>
C=C(COC1=CC(=CC=C1)Cl)Br

> <PUBCHEM_OPENEYE_ISO_SMILES>
C=C(COC1=CC(=CC=C1)Cl)Br

> <PUBCHEM_CACTVS_TPSA>
9.2

> <PUBCHEM_MONOISOTOPIC_WEIGHT>
245.944705

> <PUBCHEM_TOTAL_CHARGE>
0

> <PUBCHEM_HEAVY_ATOM_COUNT>
12

> <PUBCHEM_ATOM_DEF_STEREO_COUNT>
0

> <PUBCHEM_ATOM_UDEF_STEREO_COUNT>
0

> <PUBCHEM_BOND_DEF_STEREO_COUNT>
0

> <PUBCHEM_BOND_UDEF_STEREO_COUNT>
0

> <PUBCHEM_ISOTOPIC_ATOM_COUNT>
0

> <PUBCHEM_COMPONENT_COUNT>
1

> <PUBCHEM_CACTVS_TAUTO_COUNT>
1

> <PUBCHEM_COORDINATE_TYPE>
1
5
255

> <PUBCHEM_BONDANNOTATIONS>
4  5  8
4  6  8
5  8  8
6  9  8
8  10  8
9  10  8

$$$$
