30850461
  -OEChem-12041211432D

 49 52  0     0  0  0  0  0  0999 V2000
    4.5981    3.6672    0.0000 S   0  0  0  0  0  0  0  0  0  0  0  0
    5.5686    6.1618    0.0000 S   0  0  0  0  0  0  0  0  0  0  0  0
    4.5981   -3.3328    0.0000 O   0  0  0  0  0  0  0  0  0  0  0  0
    2.8660   -3.3328    0.0000 O   0  0  0  0  0  0  0  0  0  0  0  0
    5.4641   -1.8328    0.0000 O   0  0  0  0  0  0  0  0  0  0  0  0
    2.0000   -1.8328    0.0000 O   0  0  0  0  0  0  0  0  0  0  0  0
    5.5981    3.6672    0.0000 O   0  0  0  0  0  0  0  0  0  0  0  0
    3.5981    3.6672    0.0000 O   0  0  0  0  0  0  0  0  0  0  0  0
    4.5981   -0.3327    0.0000 N   0  0  0  0  0  0  0  0  0  0  0  0
    4.5981    4.6672    0.0000 N   0  0  0  0  0  0  0  0  0  0  0  0
    6.3776    4.7605    0.0000 N   0  0  0  0  0  0  0  0  0  0  0  0
    3.7320   -3.8328    0.0000 C   0  0  0  0  0  0  0  0  0  0  0  0
    4.5981   -4.3328    0.0000 C   0  0  0  0  0  0  0  0  0  0  0  0
    2.8660   -4.3328    0.0000 C   0  0  0  0  0  0  0  0  0  0  0  0
    4.5981   -5.3328    0.0000 C   0  0  0  0  0  0  0  0  0  0  0  0
    2.8660   -5.3328    0.0000 C   0  0  0  0  0  0  0  0  0  0  0  0
    3.7320   -5.8328    0.0000 C   0  0  0  0  0  0  0  0  0  0  0  0
    2.8660   -2.3328    0.0000 C   0  0  0  0  0  0  0  0  0  0  0  0
    4.5981   -2.3328    0.0000 C   0  0  0  0  0  0  0  0  0  0  0  0
    3.7320   -1.8328    0.0000 C   0  0  0  0  0  0  0  0  0  0  0  0
    3.7320   -0.8327    0.0000 C   0  0  0  0  0  0  0  0  0  0  0  0
    4.5981    0.6673    0.0000 C   0  0  0  0  0  0  0  0  0  0  0  0
    4.5981    2.6672    0.0000 C   0  0  0  0  0  0  0  0  0  0  0  0
    5.4641    1.1672    0.0000 C   0  0  0  0  0  0  0  0  0  0  0  0
    3.7320    1.1672    0.0000 C   0  0  0  0  0  0  0  0  0  0  0  0
    5.4641    2.1672    0.0000 C   0  0  0  0  0  0  0  0  0  0  0  0
    3.7320    2.1672    0.0000 C   0  0  0  0  0  0  0  0  0  0  0  0
    5.4641    5.1672    0.0000 C   0  0  0  0  0  0  0  0  0  0  0  0
    6.5468    6.3697    0.0000 C   0  0  0  0  0  0  0  0  0  0  0  0
    7.0468    5.5037    0.0000 C   0  0  0  0  0  0  0  0  0  0  0  0
    2.6540   -3.7501    0.0000 H   0  0  0  0  0  0  0  0  0  0  0  0
    2.2554   -4.4404    0.0000 H   0  0  0  0  0  0  0  0  0  0  0  0
    5.2087   -4.4404    0.0000 H   0  0  0  0  0  0  0  0  0  0  0  0
    4.8101   -3.7501    0.0000 H   0  0  0  0  0  0  0  0  0  0  0  0
    2.2554   -5.2251    0.0000 H   0  0  0  0  0  0  0  0  0  0  0  0
    2.6540   -5.9154    0.0000 H   0  0  0  0  0  0  0  0  0  0  0  0
    4.8101   -5.9154    0.0000 H   0  0  0  0  0  0  0  0  0  0  0  0
    5.2087   -5.2251    0.0000 H   0  0  0  0  0  0  0  0  0  0  0  0
    3.4220   -6.3697    0.0000 H   0  0  0  0  0  0  0  0  0  0  0  0
    4.0420   -6.3697    0.0000 H   0  0  0  0  0  0  0  0  0  0  0  0
    3.1951   -0.5227    0.0000 H   0  0  0  0  0  0  0  0  0  0  0  0
    5.1350   -0.6427    0.0000 H   0  0  0  0  0  0  0  0  0  0  0  0
    6.0010    0.8573    0.0000 H   0  0  0  0  0  0  0  0  0  0  0  0
    3.1951    0.8573    0.0000 H   0  0  0  0  0  0  0  0  0  0  0  0
    6.0010    2.4772    0.0000 H   0  0  0  0  0  0  0  0  0  0  0  0
    3.1951    2.4772    0.0000 H   0  0  0  0  0  0  0  0  0  0  0  0
    4.0611    4.9772    0.0000 H   0  0  0  0  0  0  0  0  0  0  0  0
    6.7990    6.9361    0.0000 H   0  0  0  0  0  0  0  0  0  0  0  0
    7.6634    5.4389    0.0000 H   0  0  0  0  0  0  0  0  0  0  0  0
  1  7  2  0  0  0  0
  1  8  2  0  0  0  0
  1 10  1  0  0  0  0
  1 23  1  0  0  0  0
  2 28  1  0  0  0  0
  2 29  1  0  0  0  0
  3 12  1  0  0  0  0
  3 19  1  0  0  0  0
  4 12  1  0  0  0  0
  4 18  1  0  0  0  0
  5 19  2  0  0  0  0
  6 18  2  0  0  0  0
  9 21  1  0  0  0  0
  9 22  1  0  0  0  0
  9 42  1  0  0  0  0
 10 28  1  0  0  0  0
 10 47  1  0  0  0  0
 11 28  2  0  0  0  0
 11 30  1  0  0  0  0
 12 13  1  0  0  0  0
 12 14  1  0  0  0  0
 13 15  1  0  0  0  0
 13 33  1  0  0  0  0
 13 34  1  0  0  0  0
 14 16  1  0  0  0  0
 14 31  1  0  0  0  0
 14 32  1  0  0  0  0
 15 17  1  0  0  0  0
 15 37  1  0  0  0  0
 15 38  1  0  0  0  0
 16 17  1  0  0  0  0
 16 35  1  0  0  0  0
 16 36  1  0  0  0  0
 17 39  1  0  0  0  0
 17 40  1  0  0  0  0
 18 20  1  0  0  0  0
 19 20  1  0  0  0  0
 20 21  2  0  0  0  0
 21 41  1  0  0  0  0
 22 24  2  0  0  0  0
 22 25  1  0  0  0  0
 23 26  2  0  0  0  0
 23 27  1  0  0  0  0
 24 26  1  0  0  0  0
 24 43  1  0  0  0  0
 25 27  2  0  0  0  0
 25 44  1  0  0  0  0
 26 45  1  0  0  0  0
 27 46  1  0  0  0  0
 29 30  2  0  0  0  0
 29 48  1  0  0  0  0
 30 49  1  0  0  0  0
M  END
> <PUBCHEM_COMPOUND_CID>
30850461

> <PUBCHEM_COMPOUND_CANONICALIZED>
1

> <PUBCHEM_CACTVS_COMPLEXITY>
774

> <PUBCHEM_CACTVS_HBOND_ACCEPTOR>
10

> <PUBCHEM_CACTVS_HBOND_DONOR>
2

> <PUBCHEM_CACTVS_ROTATABLE_BOND>
5

> <PUBCHEM_CACTVS_SUBSKEYS>
AAADceB7OABgAAAAAAAAAAAAAAAAAWAAAAA0YIAAAAAAAAABwAAAHgQQQAAADAzF0gS92ZLIFAqsAjT3bHDC8LlxCjlIyJ0YZMiYJCbIsZGmIAhlsAJM6OeQQAAAAAQAAAAAAAAACAAAAAAAAAAAAAAAAA==

> <PUBCHEM_IUPAC_OPENEYE_NAME>
4-[(2,4-dioxo-1,5-dioxaspiro[5.5]undecan-3-ylidene)methylamino]-N-thiazol-2-yl-benzenesulfonamide

> <PUBCHEM_IUPAC_CAS_NAME>
4-[(2,4-dioxo-1,5-dioxaspiro[5.5]undecan-3-ylidene)methylamino]-N-(2-thiazolyl)benzenesulfonamide

> <PUBCHEM_IUPAC_NAME>
4-[(2,4-dioxo-1,5-dioxaspiro[5.5]undecan-3-ylidene)methylamino]-N-(1,3-thiazol-2-yl)benzenesulfonamide

> <PUBCHEM_IUPAC_SYSTEMATIC_NAME>
4-[[2,4-bis(oxidanylidene)-1,5-dioxaspiro[5.5]undecan-3-ylidene]methylamino]-N-(1,3-thiazol-2-yl)benzenesulfonamide

> <PUBCHEM_IUPAC_TRADITIONAL_NAME>
4-[(2,4-diketo-1,5-dioxaspiro[5.5]undecan-3-ylidene)methylamino]-N-thiazol-2-yl-benzenesulfonamide

> <PUBCHEM_IUPAC_INCHI>
InChI=1S/C19H19N3O6S2/c23-16-15(17(24)28-19(27-16)8-2-1-3-9-19)12-21-13-4-6-14(7-5-13)30(25,26)22-18-20-10-11-29-18/h4-7,10-12,21H,1-3,8-9H2,(H,20,22)

> <PUBCHEM_IUPAC_INCHIKEY>
HQWNBACGCVMXBM-UHFFFAOYSA-N

> <PUBCHEM_XLOGP3>
2.3

> <PUBCHEM_EXACT_MASS>
449.071527

> <PUBCHEM_MOLECULAR_FORMULA>
C19H19N3O6S2

> <PUBCHEM_MOLECULAR_WEIGHT>
449.50066

> <PUBCHEM_OPENEYE_CAN_SMILES>
C1CCC2(CC1)OC(=O)C(=CNC3=CC=C(C=C3)S(=O)(=O)NC4=NC=CS4)C(=O)O2

> <PUBCHEM_OPENEYE_ISO_SMILES>
C1CCC2(CC1)OC(=O)C(=CNC3=CC=C(C=C3)S(=O)(=O)NC4=NC=CS4)C(=O)O2

> <PUBCHEM_CACTVS_TPSA>
160

> <PUBCHEM_MONOISOTOPIC_WEIGHT>
449.071527

> <PUBCHEM_TOTAL_CHARGE>
0

> <PUBCHEM_HEAVY_ATOM_COUNT>
30

> <PUBCHEM_ATOM_DEF_STEREO_COUNT>
0

> <PUBCHEM_ATOM_UDEF_STEREO_COUNT>
0

> <PUBCHEM_BOND_DEF_STEREO_COUNT>
0

> <PUBCHEM_BOND_UDEF_STEREO_COUNT>
0

> <PUBCHEM_ISOTOPIC_ATOM_COUNT>
0

> <PUBCHEM_COMPONENT_COUNT>
1

> <PUBCHEM_CACTVS_TAUTO_COUNT>
6

> <PUBCHEM_COORDINATE_TYPE>
1
5
255

> <PUBCHEM_BONDANNOTATIONS>
11  28  8
11  30  8
2  28  8
2  29  8
22  24  8
22  25  8
23  26  8
23  27  8
24  26  8
25  27  8
29  30  8

$$$$
30850465
  -OEChem-12041211432D

 52 55  0     0  0  0  0  0  0999 V2000
    4.5981    3.6672    0.0000 S   0  0  0  0  0  0  0  0  0  0  0  0
    4.5981   -3.3328    0.0000 O   0  0  0  0  0  0  0  0  0  0  0  0
    2.8660   -3.3328    0.0000 O   0  0  0  0  0  0  0  0  0  0  0  0
    5.4641   -1.8328    0.0000 O   0  0  0  0  0  0  0  0  0  0  0  0
    2.0000   -1.8328    0.0000 O   0  0  0  0  0  0  0  0  0  0  0  0
    5.5981    3.6672    0.0000 O   0  0  0  0  0  0  0  0  0  0  0  0
    3.5981    3.6672    0.0000 O   0  0  0  0  0  0  0  0  0  0  0  0
    6.5468    6.3697    0.0000 O   0  0  0  0  0  0  0  0  0  0  0  0
    4.5981   -0.3327    0.0000 N   0  0  0  0  0  0  0  0  0  0  0  0
    4.5981    4.6672    0.0000 N   0  0  0  0  0  0  0  0  0  0  0  0
    5.5686    6.1618    0.0000 N   0  0  0  0  0  0  0  0  0  0  0  0
    3.7320   -3.8328    0.0000 C   0  0  0  0  0  0  0  0  0  0  0  0
    4.5981   -4.3328    0.0000 C   0  0  0  0  0  0  0  0  0  0  0  0
    2.8660   -4.3328    0.0000 C   0  0  0  0  0  0  0  0  0  0  0  0
    4.5981   -5.3328    0.0000 C   0  0  0  0  0  0  0  0  0  0  0  0
    2.8660   -5.3328    0.0000 C   0  0  0  0  0  0  0  0  0  0  0  0
    3.7320   -5.8328    0.0000 C   0  0  0  0  0  0  0  0  0  0  0  0
    4.5981   -2.3328    0.0000 C   0  0  0  0  0  0  0  0  0  0  0  0
    2.8660   -2.3328    0.0000 C   0  0  0  0  0  0  0  0  0  0  0  0
    3.7320   -1.8328    0.0000 C   0  0  0  0  0  0  0  0  0  0  0  0
    3.7320   -0.8327    0.0000 C   0  0  0  0  0  0  0  0  0  0  0  0
    4.5981    0.6673    0.0000 C   0  0  0  0  0  0  0  0  0  0  0  0
    4.5981    2.6672    0.0000 C   0  0  0  0  0  0  0  0  0  0  0  0
    5.4641    1.1672    0.0000 C   0  0  0  0  0  0  0  0  0  0  0  0
    3.7320    1.1672    0.0000 C   0  0  0  0  0  0  0  0  0  0  0  0
    5.4641    2.1672    0.0000 C   0  0  0  0  0  0  0  0  0  0  0  0
    3.7320    2.1672    0.0000 C   0  0  0  0  0  0  0  0  0  0  0  0
    5.4641    5.1672    0.0000 C   0  0  0  0  0  0  0  0  0  0  0  0
    6.3776    4.7605    0.0000 C   0  0  0  0  0  0  0  0  0  0  0  0
    7.0468    5.5037    0.0000 C   0  0  0  0  0  0  0  0  0  0  0  0
    8.0413    5.3991    0.0000 C   0  0  0  0  0  0  0  0  0  0  0  0
    2.6540   -3.7501    0.0000 H   0  0  0  0  0  0  0  0  0  0  0  0
    2.2554   -4.4404    0.0000 H   0  0  0  0  0  0  0  0  0  0  0  0
    5.2087   -4.4404    0.0000 H   0  0  0  0  0  0  0  0  0  0  0  0
    4.8101   -3.7501    0.0000 H   0  0  0  0  0  0  0  0  0  0  0  0
    2.2554   -5.2251    0.0000 H   0  0  0  0  0  0  0  0  0  0  0  0
    2.6540   -5.9154    0.0000 H   0  0  0  0  0  0  0  0  0  0  0  0
    4.8101   -5.9154    0.0000 H   0  0  0  0  0  0  0  0  0  0  0  0
    5.2087   -5.2251    0.0000 H   0  0  0  0  0  0  0  0  0  0  0  0
    3.4220   -6.3697    0.0000 H   0  0  0  0  0  0  0  0  0  0  0  0
    4.0420   -6.3697    0.0000 H   0  0  0  0  0  0  0  0  0  0  0  0
    3.1951   -0.5227    0.0000 H   0  0  0  0  0  0  0  0  0  0  0  0
    5.1350   -0.6427    0.0000 H   0  0  0  0  0  0  0  0  0  0  0  0
    6.0010    0.8573    0.0000 H   0  0  0  0  0  0  0  0  0  0  0  0
    3.1951    0.8573    0.0000 H   0  0  0  0  0  0  0  0  0  0  0  0
    6.0010    2.4772    0.0000 H   0  0  0  0  0  0  0  0  0  0  0  0
    3.1951    2.4772    0.0000 H   0  0  0  0  0  0  0  0  0  0  0  0
    4.0611    4.9772    0.0000 H   0  0  0  0  0  0  0  0  0  0  0  0
    6.5066    4.1541    0.0000 H   0  0  0  0  0  0  0  0  0  0  0  0
    7.9765    4.7825    0.0000 H   0  0  0  0  0  0  0  0  0  0  0  0
    8.6579    5.3343    0.0000 H   0  0  0  0  0  0  0  0  0  0  0  0
    8.1061    6.0157    0.0000 H   0  0  0  0  0  0  0  0  0  0  0  0
  1  6  2  0  0  0  0
  1  7  2  0  0  0  0
  1 10  1  0  0  0  0
  1 23  1  0  0  0  0
  2 12  1  0  0  0  0
  2 18  1  0  0  0  0
  3 12  1  0  0  0  0
  3 19  1  0  0  0  0
  4 18  2  0  0  0  0
  5 19  2  0  0  0  0
  8 11  1  0  0  0  0
  8 30  1  0  0  0  0
  9 21  1  0  0  0  0
  9 22  1  0  0  0  0
  9 43  1  0  0  0  0
 10 28  1  0  0  0  0
 10 48  1  0  0  0  0
 11 28  2  0  0  0  0
 12 13  1  0  0  0  0
 12 14  1  0  0  0  0
 13 15  1  0  0  0  0
 13 34  1  0  0  0  0
 13 35  1  0  0  0  0
 14 16  1  0  0  0  0
 14 32  1  0  0  0  0
 14 33  1  0  0  0  0
 15 17  1  0  0  0  0
 15 38  1  0  0  0  0
 15 39  1  0  0  0  0
 16 17  1  0  0  0  0
 16 36  1  0  0  0  0
 16 37  1  0  0  0  0
 17 40  1  0  0  0  0
 17 41  1  0  0  0  0
 18 20  1  0  0  0  0
 19 20  1  0  0  0  0
 20 21  2  0  0  0  0
 21 42  1  0  0  0  0
 22 24  2  0  0  0  0
 22 25  1  0  0  0  0
 23 26  2  0  0  0  0
 23 27  1  0  0  0  0
 24 26  1  0  0  0  0
 24 44  1  0  0  0  0
 25 27  2  0  0  0  0
 25 45  1  0  0  0  0
 26 46  1  0  0  0  0
 27 47  1  0  0  0  0
 28 29  1  0  0  0  0
 29 30  2  0  0  0  0
 29 49  1  0  0  0  0
 30 31  1  0  0  0  0
 31 50  1  0  0  0  0
 31 51  1  0  0  0  0
 31 52  1  0  0  0  0
M  END
> <PUBCHEM_COMPOUND_CID>
30850465

> <PUBCHEM_COMPOUND_CANONICALIZED>
1

> <PUBCHEM_CACTVS_COMPLEXITY>
802

> <PUBCHEM_CACTVS_HBOND_ACCEPTOR>
10

> <PUBCHEM_CACTVS_HBOND_DONOR>
2

> <PUBCHEM_CACTVS_ROTATABLE_BOND>
5

> <PUBCHEM_CACTVS_SUBSKEYS>
AAADceB7OABAAAAAAAAAAAAAAAAAAWAAAAA0YIAAAAAAAAABwAAAHgQUQAAADAzB0gQz/ZLQBAKpAqb2anDCABAlIgAomLk+bNoYJC7IsZGmIIhnsAhM6MeQQAAAAAQAAAAAAAAACAAAAAAAAAAAAAAAAA==

> <PUBCHEM_IUPAC_OPENEYE_NAME>
4-[(2,4-dioxo-1,5-dioxaspiro[5.5]undecan-3-ylidene)methylamino]-N-(5-methylisoxazol-3-yl)benzenesulfonamide

> <PUBCHEM_IUPAC_CAS_NAME>
4-[(2,4-dioxo-1,5-dioxaspiro[5.5]undecan-3-ylidene)methylamino]-N-(5-methyl-3-isoxazolyl)benzenesulfonamide

> <PUBCHEM_IUPAC_NAME>
4-[(2,4-dioxo-1,5-dioxaspiro[5.5]undecan-3-ylidene)methylamino]-N-(5-methyl-1,2-oxazol-3-yl)benzenesulfonamide

> <PUBCHEM_IUPAC_SYSTEMATIC_NAME>
4-[[2,4-bis(oxidanylidene)-1,5-dioxaspiro[5.5]undecan-3-ylidene]methylamino]-N-(5-methyl-1,2-oxazol-3-yl)benzenesulfonamide

> <PUBCHEM_IUPAC_TRADITIONAL_NAME>
4-[(2,4-diketo-1,5-dioxaspiro[5.5]undecan-3-ylidene)methylamino]-N-(5-methylisoxazol-3-yl)benzenesulfonamide

> <PUBCHEM_IUPAC_INCHI>
InChI=1S/C20H21N3O7S/c1-13-11-17(22-30-13)23-31(26,27)15-7-5-14(6-8-15)21-12-16-18(24)28-20(29-19(16)25)9-3-2-4-10-20/h5-8,11-12,21H,2-4,9-10H2,1H3,(H,22,23)

> <PUBCHEM_IUPAC_INCHIKEY>
ALLVAVUEUXANRT-UHFFFAOYSA-N

> <PUBCHEM_XLOGP3>
3.1

> <PUBCHEM_EXACT_MASS>
447.110021

> <PUBCHEM_MOLECULAR_FORMULA>
C20H21N3O7S

> <PUBCHEM_MOLECULAR_WEIGHT>
447.46164

> <PUBCHEM_OPENEYE_CAN_SMILES>
CC1=CC(=NO1)NS(=O)(=O)C2=CC=C(C=C2)NC=C3C(=O)OC4(CCCCC4)OC3=O

> <PUBCHEM_OPENEYE_ISO_SMILES>
CC1=CC(=NO1)NS(=O)(=O)C2=CC=C(C=C2)NC=C3C(=O)OC4(CCCCC4)OC3=O

> <PUBCHEM_CACTVS_TPSA>
145

> <PUBCHEM_MONOISOTOPIC_WEIGHT>
447.110021

> <PUBCHEM_TOTAL_CHARGE>
0

> <PUBCHEM_HEAVY_ATOM_COUNT>
31

> <PUBCHEM_ATOM_DEF_STEREO_COUNT>
0

> <PUBCHEM_ATOM_UDEF_STEREO_COUNT>
0

> <PUBCHEM_BOND_DEF_STEREO_COUNT>
0

> <PUBCHEM_BOND_UDEF_STEREO_COUNT>
0

> <PUBCHEM_ISOTOPIC_ATOM_COUNT>
0

> <PUBCHEM_COMPONENT_COUNT>
1

> <PUBCHEM_CACTVS_TAUTO_COUNT>
6

> <PUBCHEM_COORDINATE_TYPE>
1
5
255

> <PUBCHEM_BONDANNOTATIONS>
11  28  8
22  24  8
22  25  8
23  26  8
23  27  8
24  26  8
25  27  8
28  29  8
29  30  8
8  11  8
8  30  8

$$$$
