23786399
  -OEChem-11301217342D

 58 59  0     1  0  0  0  0  0999 V2000
    5.1350   -2.2110    0.0000 O   0  0  0  0  0  0  0  0  0  0  0  0
    3.4030   -4.2110    0.0000 O   0  0  0  0  0  0  0  0  0  0  0  0
    5.1350   -5.2110    0.0000 O   0  0  0  0  0  0  0  0  0  0  0  0
    6.8671   -2.2110    0.0000 O   0  0  0  0  0  0  0  0  0  0  0  0
    6.8671   -4.2110    0.0000 O   0  0  0  0  0  0  0  0  0  0  0  0
    2.5369   -2.7110    0.0000 O   0  0  0  0  0  0  0  0  0  0  0  0
    9.0991    2.9230    0.0000 O   0  0  0  0  0  0  0  0  0  0  0  0
    7.7331    2.2890    0.0000 O   0  0  0  0  0  0  0  0  0  0  0  0
    6.8671    3.7890    0.0000 O   0  0  0  0  0  0  0  0  0  0  0  0
    7.0991    4.6550    0.0000 O   0  0  0  0  0  0  0  0  0  0  0  0
    4.2690   -3.7110    0.0000 C   0  0  1  0  0  0  0  0  0  0  0  0
    5.1350   -4.2110    0.0000 C   0  0  1  0  0  0  0  0  0  0  0  0
    4.2690   -2.7110    0.0000 C   0  0  1  0  0  0  0  0  0  0  0  0
    6.0010   -3.7110    0.0000 C   0  0  2  0  0  0  0  0  0  0  0  0
    6.0010   -2.7110    0.0000 C   0  0  1  0  0  0  0  0  0  0  0  0
    3.4030   -2.2110    0.0000 C   0  0  0  0  0  0  0  0  0  0  0  0
    9.4651    4.2890    0.0000 C   0  0  0  0  0  0  0  0  0  0  0  0
    8.5991    3.7890    0.0000 C   0  0  3  0  0  0  0  0  0  0  0  0
    6.8671   -1.2110    0.0000 C   0  0  0  0  0  0  0  0  0  0  0  0
    9.4651    5.2890    0.0000 C   0  0  0  0  0  0  0  0  0  0  0  0
   10.3312    3.7890    0.0000 C   0  0  0  0  0  0  0  0  0  0  0  0
    7.7331    3.2890    0.0000 C   0  0  0  0  0  0  0  0  0  0  0  0
    8.0991    4.6550    0.0000 C   0  0  0  0  0  0  0  0  0  0  0  0
    7.7331   -0.7110    0.0000 C   0  0  0  0  0  0  0  0  0  0  0  0
    6.0010   -0.7110    0.0000 C   0  0  0  0  0  0  0  0  0  0  0  0
    6.8671    0.7890    0.0000 C   0  0  0  0  0  0  0  0  0  0  0  0
    6.8671    1.7890    0.0000 C   0  0  0  0  0  0  0  0  0  0  0  0
    7.7331    0.2890    0.0000 C   0  0  0  0  0  0  0  0  0  0  0  0
    6.0010    0.2890    0.0000 C   0  0  0  0  0  0  0  0  0  0  0  0
    8.5991    5.5210    0.0000 C   0  0  0  0  0  0  0  0  0  0  0  0
    4.2690   -4.3310    0.0000 H   0  0  0  0  0  0  0  0  0  0  0  0
    5.6720   -4.5210    0.0000 H   0  0  0  0  0  0  0  0  0  0  0  0
    4.2690   -2.0910    0.0000 H   0  0  0  0  0  0  0  0  0  0  0  0
    6.0010   -4.3310    0.0000 H   0  0  0  0  0  0  0  0  0  0  0  0
    6.5380   -3.0210    0.0000 H   0  0  0  0  0  0  0  0  0  0  0  0
    3.8015   -1.7361    0.0000 H   0  0  0  0  0  0  0  0  0  0  0  0
    3.0044   -1.7361    0.0000 H   0  0  0  0  0  0  0  0  0  0  0  0
    3.4030   -4.8310    0.0000 H   0  0  0  0  0  0  0  0  0  0  0  0
    5.6720   -5.5210    0.0000 H   0  0  0  0  0  0  0  0  0  0  0  0
    7.4040   -3.9010    0.0000 H   0  0  0  0  0  0  0  0  0  0  0  0
   10.0021    4.5990    0.0000 H   0  0  0  0  0  0  0  0  0  0  0  0
    2.0000   -2.4010    0.0000 H   0  0  0  0  0  0  0  0  0  0  0  0
   10.0851    5.2890    0.0000 H   0  0  0  0  0  0  0  0  0  0  0  0
    9.4651    5.9090    0.0000 H   0  0  0  0  0  0  0  0  0  0  0  0
    8.8451    5.2890    0.0000 H   0  0  0  0  0  0  0  0  0  0  0  0
   10.0212    3.2520    0.0000 H   0  0  0  0  0  0  0  0  0  0  0  0
   10.8681    3.4790    0.0000 H   0  0  0  0  0  0  0  0  0  0  0  0
   10.6412    4.3259    0.0000 H   0  0  0  0  0  0  0  0  0  0  0  0
    8.2700   -1.0210    0.0000 H   0  0  0  0  0  0  0  0  0  0  0  0
    5.4641   -1.0210    0.0000 H   0  0  0  0  0  0  0  0  0  0  0  0
    6.6550    2.3716    0.0000 H   0  0  0  0  0  0  0  0  0  0  0  0
    6.2565    1.6813    0.0000 H   0  0  0  0  0  0  0  0  0  0  0  0
    8.2700    0.5990    0.0000 H   0  0  0  0  0  0  0  0  0  0  0  0
    5.4641    0.5990    0.0000 H   0  0  0  0  0  0  0  0  0  0  0  0
    9.7191    2.9230    0.0000 H   0  0  0  0  0  0  0  0  0  0  0  0
    9.1360    5.2110    0.0000 H   0  0  0  0  0  0  0  0  0  0  0  0
    8.9091    6.0580    0.0000 H   0  0  0  0  0  0  0  0  0  0  0  0
    8.0622    5.8310    0.0000 H   0  0  0  0  0  0  0  0  0  0  0  0
  1 13  1  0  0  0  0
  1 15  1  0  0  0  0
 11  2  1  6  0  0  0
  2 38  1  0  0  0  0
 12  3  1  1  0  0  0
  3 39  1  0  0  0  0
 15  4  1  1  0  0  0
  4 19  1  0  0  0  0
 14  5  1  6  0  0  0
  5 40  1  0  0  0  0
  6 16  1  0  0  0  0
  6 42  1  0  0  0  0
  7 18  1  0  0  0  0
  7 55  1  0  0  0  0
  8 22  1  0  0  0  0
  8 27  1  0  0  0  0
  9 22  2  0  0  0  0
 10 23  2  0  0  0  0
 11 12  1  0  0  0  0
 11 13  1  0  0  0  0
 11 31  1  0  0  0  0
 12 14  1  0  0  0  0
 12 32  1  0  0  0  0
 13 16  1  1  0  0  0
 13 33  1  0  0  0  0
 14 15  1  0  0  0  0
 14 34  1  0  0  0  0
 15 35  1  0  0  0  0
 16 36  1  0  0  0  0
 16 37  1  0  0  0  0
 17 18  1  0  0  0  0
 17 20  1  0  0  0  0
 17 21  1  0  0  0  0
 17 41  1  0  0  0  0
 18 22  1  0  0  0  0
 18 23  1  0  0  0  0
 19 24  2  0  0  0  0
 19 25  1  0  0  0  0
 20 43  1  0  0  0  0
 20 44  1  0  0  0  0
 20 45  1  0  0  0  0
 21 46  1  0  0  0  0
 21 47  1  0  0  0  0
 21 48  1  0  0  0  0
 23 30  1  0  0  0  0
 24 28  1  0  0  0  0
 24 49  1  0  0  0  0
 25 29  2  0  0  0  0
 25 50  1  0  0  0  0
 26 27  1  0  0  0  0
 26 28  2  0  0  0  0
 26 29  1  0  0  0  0
 27 51  1  0  0  0  0
 27 52  1  0  0  0  0
 28 53  1  0  0  0  0
 29 54  1  0  0  0  0
 30 56  1  0  0  0  0
 30 57  1  0  0  0  0
 30 58  1  0  0  0  0
M  END
> <PUBCHEM_COMPOUND_CID>
23786399

> <PUBCHEM_COMPOUND_CANONICALIZED>
1

> <PUBCHEM_CACTVS_COMPLEXITY>
588

> <PUBCHEM_CACTVS_HBOND_ACCEPTOR>
10

> <PUBCHEM_CACTVS_HBOND_DONOR>
5

> <PUBCHEM_CACTVS_ROTATABLE_BOND>
9

> <PUBCHEM_CACTVS_SUBSKEYS>
AAADceB4PAAAAAAAAAAAAAAAAAAAAAAAAAA0QAAAAAAAAAABAAAAGgAACAAADVSwmAMyDoAABgCIAqDSCAICCAAgIAAIiAFGCIgdNjaMMRqieCCl4BEPqAfA4CwOoAAAAAAAAABAAAAAAAAAAAAAAAAAAA==

> <PUBCHEM_IUPAC_OPENEYE_NAME>
[4-[(2S,3R,4S,5S,6R)-3,4,5-trihydroxy-6-(hydroxymethyl)tetrahydropyran-2-yl]oxyphenyl]methyl 2-acetyl-2-hydroxy-3-methyl-butanoate

> <PUBCHEM_IUPAC_CAS_NAME>
2-acetyl-2-hydroxy-3-methylbutanoic acid [4-[[(2S,3R,4S,5S,6R)-3,4,5-trihydroxy-6-(hydroxymethyl)-2-oxanyl]oxy]phenyl]methyl ester

> <PUBCHEM_IUPAC_NAME>
[4-[(2S,3R,4S,5S,6R)-3,4,5-trihydroxy-6-(hydroxymethyl)oxan-2-yl]oxyphenyl]methyl 2-acetyl-2-hydroxy-3-methylbutanoate

> <PUBCHEM_IUPAC_SYSTEMATIC_NAME>
[4-[(2S,3R,4S,5S,6R)-6-(hydroxymethyl)-3,4,5-tris(oxidanyl)oxan-2-yl]oxyphenyl]methyl 2-ethanoyl-3-methyl-2-oxidanyl-butanoate

> <PUBCHEM_IUPAC_TRADITIONAL_NAME>
2-acetyl-2-hydroxy-3-methyl-butyric acid [4-[(2S,3R,4S,5S,6R)-3,4,5-trihydroxy-6-methylol-tetrahydropyran-2-yl]oxybenzyl] ester

> <PUBCHEM_IUPAC_INCHI>
InChI=1S/C20H28O10/c1-10(2)20(27,11(3)22)19(26)28-9-12-4-6-13(7-5-12)29-18-17(25)16(24)15(23)14(8-21)30-18/h4-7,10,14-18,21,23-25,27H,8-9H2,1-3H3/t14-,15-,16+,17-,18-,20?/m1/s1

> <PUBCHEM_IUPAC_INCHIKEY>
HPABTKDLUURFJD-WMJZPAMESA-N

> <PUBCHEM_XLOGP3>
0.2

> <PUBCHEM_EXACT_MASS>
428.168247

> <PUBCHEM_MOLECULAR_FORMULA>
C20H28O10

> <PUBCHEM_MOLECULAR_WEIGHT>
428.43032

> <PUBCHEM_OPENEYE_CAN_SMILES>
CC(C)C(C(=O)C)(C(=O)OCC1=CC=C(C=C1)OC2C(C(C(C(O2)CO)O)O)O)O

> <PUBCHEM_OPENEYE_ISO_SMILES>
CC(C)C(C(=O)C)(C(=O)OCC1=CC=C(C=C1)O[C@H]2[C@@H]([C@H]([C@@H]([C@H](O2)CO)O)O)O)O

> <PUBCHEM_CACTVS_TPSA>
163

> <PUBCHEM_MONOISOTOPIC_WEIGHT>
428.168247

> <PUBCHEM_TOTAL_CHARGE>
0

> <PUBCHEM_HEAVY_ATOM_COUNT>
30

> <PUBCHEM_ATOM_DEF_STEREO_COUNT>
5

> <PUBCHEM_ATOM_UDEF_STEREO_COUNT>
1

> <PUBCHEM_BOND_DEF_STEREO_COUNT>
0

> <PUBCHEM_BOND_UDEF_STEREO_COUNT>
0

> <PUBCHEM_ISOTOPIC_ATOM_COUNT>
0

> <PUBCHEM_COMPONENT_COUNT>
1

> <PUBCHEM_CACTVS_TAUTO_COUNT>
2

> <PUBCHEM_COORDINATE_TYPE>
1
5
255

> <PUBCHEM_BONDANNOTATIONS>
13  16  5
19  24  8
19  25  8
11  2  6
24  28  8
25  29  8
26  28  8
26  29  8
12  3  5
15  4  5
14  5  6
18  7  3

$$$$
23791556
  -OEChem-11301217342D

 35 37  0     0  0  0  0  0  0999 V2000
    2.8660   -4.7500    0.0000 N   0  0  0  0  0  0  0  0  0  0  0  0
    3.7320    1.7500    0.0000 C   0  0  0  0  0  0  0  0  0  0  0  0
    3.7320    2.7500    0.0000 C   0  0  0  0  0  0  0  0  0  0  0  0
    3.7320   -0.2500    0.0000 C   0  0  0  0  0  0  0  0  0  0  0  0
    2.8660    1.2500    0.0000 C   0  0  0  0  0  0  0  0  0  0  0  0
    4.5981    1.2500    0.0000 C   0  0  0  0  0  0  0  0  0  0  0  0
    2.8660    0.2500    0.0000 C   0  0  0  0  0  0  0  0  0  0  0  0
    4.5981    0.2500    0.0000 C   0  0  0  0  0  0  0  0  0  0  0  0
    3.7320   -1.2500    0.0000 C   0  0  0  0  0  0  0  0  0  0  0  0
    4.5981    3.2500    0.0000 C   0  0  0  0  0  0  0  0  0  0  0  0
    2.8660    3.2500    0.0000 C   0  0  0  0  0  0  0  0  0  0  0  0
    2.8660   -1.7500    0.0000 C   0  0  0  0  0  0  0  0  0  0  0  0
    2.8660   -2.7500    0.0000 C   0  0  0  0  0  0  0  0  0  0  0  0
    4.5981    4.2500    0.0000 C   0  0  0  0  0  0  0  0  0  0  0  0
    2.8660    4.2500    0.0000 C   0  0  0  0  0  0  0  0  0  0  0  0
    3.7320    4.7500    0.0000 C   0  0  0  0  0  0  0  0  0  0  0  0
    2.0000   -3.2500    0.0000 C   0  0  0  0  0  0  0  0  0  0  0  0
    3.7320   -3.2500    0.0000 C   0  0  0  0  0  0  0  0  0  0  0  0
    2.0000   -4.2500    0.0000 C   0  0  0  0  0  0  0  0  0  0  0  0
    3.7320   -4.2500    0.0000 C   0  0  0  0  0  0  0  0  0  0  0  0
    2.3291    1.5600    0.0000 H   0  0  0  0  0  0  0  0  0  0  0  0
    5.1350    1.5600    0.0000 H   0  0  0  0  0  0  0  0  0  0  0  0
    2.3291   -0.0600    0.0000 H   0  0  0  0  0  0  0  0  0  0  0  0
    5.1350   -0.0600    0.0000 H   0  0  0  0  0  0  0  0  0  0  0  0
    4.2690   -1.5600    0.0000 H   0  0  0  0  0  0  0  0  0  0  0  0
    5.1350    2.9400    0.0000 H   0  0  0  0  0  0  0  0  0  0  0  0
    2.3291    2.9400    0.0000 H   0  0  0  0  0  0  0  0  0  0  0  0
    2.3291   -1.4400    0.0000 H   0  0  0  0  0  0  0  0  0  0  0  0
    5.1350    4.5600    0.0000 H   0  0  0  0  0  0  0  0  0  0  0  0
    2.3291    4.5600    0.0000 H   0  0  0  0  0  0  0  0  0  0  0  0
    3.7320    5.3700    0.0000 H   0  0  0  0  0  0  0  0  0  0  0  0
    1.4631   -2.9400    0.0000 H   0  0  0  0  0  0  0  0  0  0  0  0
    4.2690   -2.9400    0.0000 H   0  0  0  0  0  0  0  0  0  0  0  0
    1.4631   -4.5600    0.0000 H   0  0  0  0  0  0  0  0  0  0  0  0
    4.2690   -4.5600    0.0000 H   0  0  0  0  0  0  0  0  0  0  0  0
  1 19  2  0  0  0  0
  1 20  1  0  0  0  0
  2  3  1  0  0  0  0
  2  5  2  0  0  0  0
  2  6  1  0  0  0  0
  3 10  2  0  0  0  0
  3 11  1  0  0  0  0
  4  7  2  0  0  0  0
  4  8  1  0  0  0  0
  4  9  1  0  0  0  0
  5  7  1  0  0  0  0
  5 21  1  0  0  0  0
  6  8  2  0  0  0  0
  6 22  1  0  0  0  0
  7 23  1  0  0  0  0
  8 24  1  0  0  0  0
  9 12  2  3  0  0  0
  9 25  1  0  0  0  0
 10 14  1  0  0  0  0
 10 26  1  0  0  0  0
 11 15  2  0  0  0  0
 11 27  1  0  0  0  0
 12 13  1  0  0  0  0
 12 28  1  0  0  0  0
 13 17  2  0  0  0  0
 13 18  1  0  0  0  0
 14 16  2  0  0  0  0
 14 29  1  0  0  0  0
 15 16  1  0  0  0  0
 15 30  1  0  0  0  0
 16 31  1  0  0  0  0
 17 19  1  0  0  0  0
 17 32  1  0  0  0  0
 18 20  2  0  0  0  0
 18 33  1  0  0  0  0
 19 34  1  0  0  0  0
 20 35  1  0  0  0  0
M  END
> <PUBCHEM_COMPOUND_CID>
23791556

> <PUBCHEM_COMPOUND_CANONICALIZED>
1

> <PUBCHEM_CACTVS_COMPLEXITY>
289

> <PUBCHEM_CACTVS_HBOND_ACCEPTOR>
1

> <PUBCHEM_CACTVS_HBOND_DONOR>
0

> <PUBCHEM_CACTVS_ROTATABLE_BOND>
3

> <PUBCHEM_CACTVS_SUBSKEYS>
AAADccB6AAAAAAAAAAAAAAAAAAAAAAAAAAA8YIAAAAAAAAAB0AAAHAAAAAAADADBGgQ8gJIIEACgAjBnRACCgCAxAiAI2CA4ZJgIIGLAkZGEIAhggADIyAcQgMAOwAAAAAAAAACAAAAAAAAAAAAAAAAAAA==

> <PUBCHEM_IUPAC_OPENEYE_NAME>
4-[2-(4-phenylphenyl)vinyl]pyridine

> <PUBCHEM_IUPAC_CAS_NAME>
4-[2-(4-phenylphenyl)ethenyl]pyridine

> <PUBCHEM_IUPAC_NAME>
4-[2-(4-phenylphenyl)ethenyl]pyridine

> <PUBCHEM_IUPAC_SYSTEMATIC_NAME>
4-[2-(4-phenylphenyl)ethenyl]pyridine

> <PUBCHEM_IUPAC_TRADITIONAL_NAME>
4-[2-(4-phenylphenyl)vinyl]pyridine

> <PUBCHEM_IUPAC_INCHI>
InChI=1S/C19H15N/c1-2-4-18(5-3-1)19-10-8-16(9-11-19)6-7-17-12-14-20-15-13-17/h1-15H

> <PUBCHEM_IUPAC_INCHIKEY>
GPZVLZKKMRUOHU-UHFFFAOYSA-N

> <PUBCHEM_XLOGP3>
4.9

> <PUBCHEM_EXACT_MASS>
257.120449

> <PUBCHEM_MOLECULAR_FORMULA>
C19H15N

> <PUBCHEM_MOLECULAR_WEIGHT>
257.3291

> <PUBCHEM_OPENEYE_CAN_SMILES>
C1=CC=C(C=C1)C2=CC=C(C=C2)C=CC3=CC=NC=C3

> <PUBCHEM_OPENEYE_ISO_SMILES>
C1=CC=C(C=C1)C2=CC=C(C=C2)C=CC3=CC=NC=C3

> <PUBCHEM_CACTVS_TPSA>
12.9

> <PUBCHEM_MONOISOTOPIC_WEIGHT>
257.120449

> <PUBCHEM_TOTAL_CHARGE>
0

> <PUBCHEM_HEAVY_ATOM_COUNT>
20

> <PUBCHEM_ATOM_DEF_STEREO_COUNT>
0

> <PUBCHEM_ATOM_UDEF_STEREO_COUNT>
0

> <PUBCHEM_BOND_DEF_STEREO_COUNT>
0

> <PUBCHEM_BOND_UDEF_STEREO_COUNT>
1

> <PUBCHEM_ISOTOPIC_ATOM_COUNT>
0

> <PUBCHEM_COMPONENT_COUNT>
1

> <PUBCHEM_CACTVS_TAUTO_COUNT>
1

> <PUBCHEM_COORDINATE_TYPE>
1
5
255

> <PUBCHEM_BONDANNOTATIONS>
1  19  8
1  20  8
10  14  8
11  15  8
13  17  8
13  18  8
14  16  8
15  16  8
17  19  8
18  20  8
2  5  8
2  6  8
3  10  8
3  11  8
4  7  8
4  8  8
5  7  8
6  8  8
9  12  1

$$$$
