11926433
  -OEChem-12041209362D

 39 41  0     1  0  0  0  0  0999 V2000
   10.4027   -2.8631    0.0000 Br  0  0  0  0  0  0  0  0  0  0  0  0
    6.9873   -0.1548    0.0000 O   0  0  0  0  0  0  0  0  0  0  0  0
    6.5390   -1.8278    0.0000 N   0  0  0  0  0  0  0  0  0  0  0  0
    3.3234    1.3628    0.0000 C   0  0  1  0  0  0  0  0  0  0  0  0
    3.0646    2.3288    0.0000 C   0  0  1  0  0  0  0  0  0  0  0  0
    5.0554    0.3628    0.0000 C   0  0  1  0  0  0  0  0  0  0  0  0
    3.8012    3.3114    0.0000 C   0  0  0  0  0  0  0  0  0  0  0  0
    5.5554    1.2289    0.0000 C   0  0  0  0  0  0  0  0  0  0  0  0
    1.4914    0.6040    0.0000 C   0  0  0  0  0  0  0  0  0  0  0  0
    1.2326    1.5700    0.0000 C   0  0  0  0  0  0  0  0  0  0  0  0
    5.3142   -0.6031    0.0000 C   0  0  0  0  0  0  0  0  0  0  0  0
    6.2802   -0.8619    0.0000 C   0  0  0  0  0  0  0  0  0  0  0  0
    7.5049   -2.0866    0.0000 C   0  0  0  0  0  0  0  0  0  0  0  0
    8.2120   -1.3795    0.0000 C   0  0  0  0  0  0  0  0  0  0  0  0
    7.7637   -3.0526    0.0000 C   0  0  0  0  0  0  0  0  0  0  0  0
    9.1779   -1.6384    0.0000 C   0  0  0  0  0  0  0  0  0  0  0  0
    7.9532   -0.4136    0.0000 C   0  0  0  0  0  0  0  0  0  0  0  0
    8.7297   -3.3114    0.0000 C   0  0  0  0  0  0  0  0  0  0  0  0
    9.4368   -2.6043    0.0000 C   0  0  0  0  0  0  0  0  0  0  0  0
    3.5434    0.5418    0.0000 H   0  0  0  0  0  0  0  0  0  0  0  0
    2.8446    3.1498    0.0000 H   0  0  0  0  0  0  0  0  0  0  0  0
    4.5635   -0.0146    0.0000 H   0  0  0  0  0  0  0  0  0  0  0  0
    3.4834    3.8437    0.0000 H   0  0  0  0  0  0  0  0  0  0  0  0
    4.4143    3.4033    0.0000 H   0  0  0  0  0  0  0  0  0  0  0  0
    5.8261    1.7867    0.0000 H   0  0  0  0  0  0  0  0  0  0  0  0
    6.1032    0.9384    0.0000 H   0  0  0  0  0  0  0  0  0  0  0  0
    1.7035    0.0214    0.0000 H   0  0  0  0  0  0  0  0  0  0  0  0
    0.9001    0.4176    0.0000 H   0  0  0  0  0  0  0  0  0  0  0  0
    0.6413    1.3835    0.0000 H   0  0  0  0  0  0  0  0  0  0  0  0
    1.0206    2.1526    0.0000 H   0  0  0  0  0  0  0  0  0  0  0  0
    5.2602   -1.2207    0.0000 H   0  0  0  0  0  0  0  0  0  0  0  0
    4.6966   -0.6571    0.0000 H   0  0  0  0  0  0  0  0  0  0  0  0
    6.1006   -2.2662    0.0000 H   0  0  0  0  0  0  0  0  0  0  0  0
    7.3253   -3.4910    0.0000 H   0  0  0  0  0  0  0  0  0  0  0  0
    9.6164   -1.2000    0.0000 H   0  0  0  0  0  0  0  0  0  0  0  0
    7.3543   -0.5741    0.0000 H   0  0  0  0  0  0  0  0  0  0  0  0
    7.7927    0.1853    0.0000 H   0  0  0  0  0  0  0  0  0  0  0  0
    8.5521   -0.2531    0.0000 H   0  0  0  0  0  0  0  0  0  0  0  0
    8.8901   -3.9103    0.0000 H   0  0  0  0  0  0  0  0  0  0  0  0
  1 19  1  0  0  0  0
  2 12  2  0  0  0  0
  3 12  1  0  0  0  0
  3 13  1  0  0  0  0
  3 33  1  0  0  0  0
  4  6  1  0  0  0  0
  4  7  1  0  0  0  0
  4  9  1  0  0  0  0
  4 20  1  1  0  0  0
  5  7  1  0  0  0  0
  5  8  1  0  0  0  0
  5 10  1  0  0  0  0
  5 21  1  6  0  0  0
  6  8  1  0  0  0  0
  6 11  1  1  0  0  0
  6 22  1  0  0  0  0
  7 23  1  0  0  0  0
  7 24  1  0  0  0  0
  8 25  1  0  0  0  0
  8 26  1  0  0  0  0
  9 10  1  0  0  0  0
  9 27  1  0  0  0  0
  9 28  1  0  0  0  0
 10 29  1  0  0  0  0
 10 30  1  0  0  0  0
 11 12  1  0  0  0  0
 11 31  1  0  0  0  0
 11 32  1  0  0  0  0
 13 14  2  0  0  0  0
 13 15  1  0  0  0  0
 14 16  1  0  0  0  0
 14 17  1  0  0  0  0
 15 18  2  0  0  0  0
 15 34  1  0  0  0  0
 16 19  2  0  0  0  0
 16 35  1  0  0  0  0
 17 36  1  0  0  0  0
 17 37  1  0  0  0  0
 17 38  1  0  0  0  0
 18 19  1  0  0  0  0
 18 39  1  0  0  0  0
M  END
> <PUBCHEM_COMPOUND_CID>
11926433

> <PUBCHEM_COMPOUND_CANONICALIZED>
1

> <PUBCHEM_CACTVS_COMPLEXITY>
346

> <PUBCHEM_CACTVS_HBOND_ACCEPTOR>
1

> <PUBCHEM_CACTVS_HBOND_DONOR>
1

> <PUBCHEM_CACTVS_ROTATABLE_BOND>
3

> <PUBCHEM_CACTVS_SUBSKEYS>
AAADceB6IAAAEAAAAAAAAAAAAAAAAYMAAAAwYAAAAAAAAAABAAAAHgBQAAABrQiBmAAywILAAACIAiVSUACCAAAhAgQIiAEAZKgIIDLAkZGEIAhglADIyhcYiMCOgAAgEAACAAAAAEQgACQAAQAACAAAAA==

> <PUBCHEM_IUPAC_OPENEYE_NAME>
N-(4-bromo-2-methyl-phenyl)-2-[(1R,2S,4S)-norbornan-2-yl]acetamide

> <PUBCHEM_IUPAC_CAS_NAME>
2-[(1S,3S,4R)-3-bicyclo[2.2.1]heptanyl]-N-(4-bromo-2-methylphenyl)acetamide

> <PUBCHEM_IUPAC_NAME>
2-[(1S,3S,4R)-3-bicyclo[2.2.1]heptanyl]-N-(4-bromo-2-methylphenyl)acetamide

> <PUBCHEM_IUPAC_SYSTEMATIC_NAME>
2-[(1S,3S,4R)-3-bicyclo[2.2.1]heptanyl]-N-(4-bromanyl-2-methyl-phenyl)ethanamide

> <PUBCHEM_IUPAC_TRADITIONAL_NAME>
N-(4-bromo-2-methyl-phenyl)-2-[(1R,2S,4S)-norbornan-2-yl]acetamide

> <PUBCHEM_IUPAC_INCHI>
InChI=1S/C16H20BrNO/c1-10-6-14(17)4-5-15(10)18-16(19)9-13-8-11-2-3-12(13)7-11/h4-6,11-13H,2-3,7-9H2,1H3,(H,18,19)/t11-,12+,13-/m0/s1

> <PUBCHEM_IUPAC_INCHIKEY>
DQZRJSQMVOINTI-XQQFMLRXSA-N

> <PUBCHEM_XLOGP3>
4.4

> <PUBCHEM_EXACT_MASS>
321.072826

> <PUBCHEM_MOLECULAR_FORMULA>
C16H20BrNO

> <PUBCHEM_MOLECULAR_WEIGHT>
322.2401

> <PUBCHEM_OPENEYE_CAN_SMILES>
CC1=C(C=CC(=C1)Br)NC(=O)CC2CC3CCC2C3

> <PUBCHEM_OPENEYE_ISO_SMILES>
CC1=C(C=CC(=C1)Br)NC(=O)C[C@@H]2C[C@H]3CC[C@@H]2C3

> <PUBCHEM_CACTVS_TPSA>
29.1

> <PUBCHEM_MONOISOTOPIC_WEIGHT>
321.072826

> <PUBCHEM_TOTAL_CHARGE>
0

> <PUBCHEM_HEAVY_ATOM_COUNT>
19

> <PUBCHEM_ATOM_DEF_STEREO_COUNT>
3

> <PUBCHEM_ATOM_UDEF_STEREO_COUNT>
0

> <PUBCHEM_BOND_DEF_STEREO_COUNT>
0

> <PUBCHEM_BOND_UDEF_STEREO_COUNT>
0

> <PUBCHEM_ISOTOPIC_ATOM_COUNT>
0

> <PUBCHEM_COMPONENT_COUNT>
1

> <PUBCHEM_CACTVS_TAUTO_COUNT>
3

> <PUBCHEM_COORDINATE_TYPE>
1
5
255

> <PUBCHEM_BONDANNOTATIONS>
13  14  8
13  15  8
14  16  8
15  18  8
16  19  8
18  19  8
4  20  5
5  21  6
6  11  5

$$$$
11926434
  -OEChem-12041209362D

 39 41  0     1  0  0  0  0  0999 V2000
   10.4027   -2.8631    0.0000 Br  0  0  0  0  0  0  0  0  0  0  0  0
    6.9873   -0.1548    0.0000 O   0  0  0  0  0  0  0  0  0  0  0  0
    6.5390   -1.8278    0.0000 N   0  0  0  0  0  0  0  0  0  0  0  0
    3.3234    1.3628    0.0000 C   0  0  1  0  0  0  0  0  0  0  0  0
    3.0646    2.3288    0.0000 C   0  0  1  0  0  0  0  0  0  0  0  0
    5.0554    0.3628    0.0000 C   0  0  2  0  0  0  0  0  0  0  0  0
    3.8012    3.3114    0.0000 C   0  0  0  0  0  0  0  0  0  0  0  0
    5.5554    1.2289    0.0000 C   0  0  0  0  0  0  0  0  0  0  0  0
    1.4914    0.6040    0.0000 C   0  0  0  0  0  0  0  0  0  0  0  0
    1.2326    1.5700    0.0000 C   0  0  0  0  0  0  0  0  0  0  0  0
    5.3142   -0.6031    0.0000 C   0  0  0  0  0  0  0  0  0  0  0  0
    6.2802   -0.8619    0.0000 C   0  0  0  0  0  0  0  0  0  0  0  0
    7.5049   -2.0866    0.0000 C   0  0  0  0  0  0  0  0  0  0  0  0
    8.2120   -1.3795    0.0000 C   0  0  0  0  0  0  0  0  0  0  0  0
    7.7637   -3.0526    0.0000 C   0  0  0  0  0  0  0  0  0  0  0  0
    9.1779   -1.6384    0.0000 C   0  0  0  0  0  0  0  0  0  0  0  0
    7.9532   -0.4136    0.0000 C   0  0  0  0  0  0  0  0  0  0  0  0
    8.7297   -3.3114    0.0000 C   0  0  0  0  0  0  0  0  0  0  0  0
    9.4368   -2.6043    0.0000 C   0  0  0  0  0  0  0  0  0  0  0  0
    3.5434    0.5418    0.0000 H   0  0  0  0  0  0  0  0  0  0  0  0
    2.8446    3.1498    0.0000 H   0  0  0  0  0  0  0  0  0  0  0  0
    4.5635   -0.0146    0.0000 H   0  0  0  0  0  0  0  0  0  0  0  0
    3.4834    3.8437    0.0000 H   0  0  0  0  0  0  0  0  0  0  0  0
    4.4143    3.4033    0.0000 H   0  0  0  0  0  0  0  0  0  0  0  0
    5.8261    1.7867    0.0000 H   0  0  0  0  0  0  0  0  0  0  0  0
    6.1032    0.9384    0.0000 H   0  0  0  0  0  0  0  0  0  0  0  0
    1.7035    0.0214    0.0000 H   0  0  0  0  0  0  0  0  0  0  0  0
    0.9001    0.4176    0.0000 H   0  0  0  0  0  0  0  0  0  0  0  0
    0.6413    1.3835    0.0000 H   0  0  0  0  0  0  0  0  0  0  0  0
    1.0206    2.1526    0.0000 H   0  0  0  0  0  0  0  0  0  0  0  0
    5.2602   -1.2207    0.0000 H   0  0  0  0  0  0  0  0  0  0  0  0
    4.6966   -0.6571    0.0000 H   0  0  0  0  0  0  0  0  0  0  0  0
    6.1006   -2.2662    0.0000 H   0  0  0  0  0  0  0  0  0  0  0  0
    7.3253   -3.4910    0.0000 H   0  0  0  0  0  0  0  0  0  0  0  0
    9.6164   -1.2000    0.0000 H   0  0  0  0  0  0  0  0  0  0  0  0
    7.3543   -0.5741    0.0000 H   0  0  0  0  0  0  0  0  0  0  0  0
    7.7927    0.1853    0.0000 H   0  0  0  0  0  0  0  0  0  0  0  0
    8.5521   -0.2531    0.0000 H   0  0  0  0  0  0  0  0  0  0  0  0
    8.8901   -3.9103    0.0000 H   0  0  0  0  0  0  0  0  0  0  0  0
  1 19  1  0  0  0  0
  2 12  2  0  0  0  0
  3 12  1  0  0  0  0
  3 13  1  0  0  0  0
  3 33  1  0  0  0  0
  4  6  1  0  0  0  0
  4  7  1  0  0  0  0
  4  9  1  0  0  0  0
  4 20  1  1  0  0  0
  5  7  1  0  0  0  0
  5  8  1  0  0  0  0
  5 10  1  0  0  0  0
  5 21  1  6  0  0  0
  6  8  1  0  0  0  0
  6 11  1  6  0  0  0
  6 22  1  0  0  0  0
  7 23  1  0  0  0  0
  7 24  1  0  0  0  0
  8 25  1  0  0  0  0
  8 26  1  0  0  0  0
  9 10  1  0  0  0  0
  9 27  1  0  0  0  0
  9 28  1  0  0  0  0
 10 29  1  0  0  0  0
 10 30  1  0  0  0  0
 11 12  1  0  0  0  0
 11 31  1  0  0  0  0
 11 32  1  0  0  0  0
 13 14  2  0  0  0  0
 13 15  1  0  0  0  0
 14 16  1  0  0  0  0
 14 17  1  0  0  0  0
 15 18  2  0  0  0  0
 15 34  1  0  0  0  0
 16 19  2  0  0  0  0
 16 35  1  0  0  0  0
 17 36  1  0  0  0  0
 17 37  1  0  0  0  0
 17 38  1  0  0  0  0
 18 19  1  0  0  0  0
 18 39  1  0  0  0  0
M  END
> <PUBCHEM_COMPOUND_CID>
11926434

> <PUBCHEM_COMPOUND_CANONICALIZED>
1

> <PUBCHEM_CACTVS_COMPLEXITY>
346

> <PUBCHEM_CACTVS_HBOND_ACCEPTOR>
1

> <PUBCHEM_CACTVS_HBOND_DONOR>
1

> <PUBCHEM_CACTVS_ROTATABLE_BOND>
3

> <PUBCHEM_CACTVS_SUBSKEYS>
AAADceB6IAAAEAAAAAAAAAAAAAAAAYMAAAAwYAAAAAAAAAABAAAAHgBQAAABrQiBmAAywILAAACIAiVSUACCAAAhAgQIiAEAZKgIIDLAkZGEIAhglADIyhcYiMCOgAAgEAACAAAAAEQgACQAAQAACAAAAA==

> <PUBCHEM_IUPAC_OPENEYE_NAME>
N-(4-bromo-2-methyl-phenyl)-2-[(1R,2R,4S)-norbornan-2-yl]acetamide

> <PUBCHEM_IUPAC_CAS_NAME>
2-[(1S,3R,4R)-3-bicyclo[2.2.1]heptanyl]-N-(4-bromo-2-methylphenyl)acetamide

> <PUBCHEM_IUPAC_NAME>
2-[(1S,3R,4R)-3-bicyclo[2.2.1]heptanyl]-N-(4-bromo-2-methylphenyl)acetamide

> <PUBCHEM_IUPAC_SYSTEMATIC_NAME>
2-[(1S,3R,4R)-3-bicyclo[2.2.1]heptanyl]-N-(4-bromanyl-2-methyl-phenyl)ethanamide

> <PUBCHEM_IUPAC_TRADITIONAL_NAME>
N-(4-bromo-2-methyl-phenyl)-2-[(1R,2R,4S)-norbornan-2-yl]acetamide

> <PUBCHEM_IUPAC_INCHI>
InChI=1S/C16H20BrNO/c1-10-6-14(17)4-5-15(10)18-16(19)9-13-8-11-2-3-12(13)7-11/h4-6,11-13H,2-3,7-9H2,1H3,(H,18,19)/t11-,12+,13+/m0/s1

> <PUBCHEM_IUPAC_INCHIKEY>
DQZRJSQMVOINTI-YNEHKIRRSA-N

> <PUBCHEM_XLOGP3>
4.4

> <PUBCHEM_EXACT_MASS>
321.072826

> <PUBCHEM_MOLECULAR_FORMULA>
C16H20BrNO

> <PUBCHEM_MOLECULAR_WEIGHT>
322.2401

> <PUBCHEM_OPENEYE_CAN_SMILES>
CC1=C(C=CC(=C1)Br)NC(=O)CC2CC3CCC2C3

> <PUBCHEM_OPENEYE_ISO_SMILES>
CC1=C(C=CC(=C1)Br)NC(=O)C[C@H]2C[C@H]3CC[C@@H]2C3

> <PUBCHEM_CACTVS_TPSA>
29.1

> <PUBCHEM_MONOISOTOPIC_WEIGHT>
321.072826

> <PUBCHEM_TOTAL_CHARGE>
0

> <PUBCHEM_HEAVY_ATOM_COUNT>
19

> <PUBCHEM_ATOM_DEF_STEREO_COUNT>
3

> <PUBCHEM_ATOM_UDEF_STEREO_COUNT>
0

> <PUBCHEM_BOND_DEF_STEREO_COUNT>
0

> <PUBCHEM_BOND_UDEF_STEREO_COUNT>
0

> <PUBCHEM_ISOTOPIC_ATOM_COUNT>
0

> <PUBCHEM_COMPONENT_COUNT>
1

> <PUBCHEM_CACTVS_TAUTO_COUNT>
3

> <PUBCHEM_COORDINATE_TYPE>
1
5
255

> <PUBCHEM_BONDANNOTATIONS>
13  14  8
13  15  8
14  16  8
15  18  8
16  19  8
18  19  8
4  20  5
5  21  6
6  11  6

$$$$
11944393
  -OEChem-12041209372D

 36 38  0     1  0  0  0  0  0999 V2000
    7.1510   -3.5355    0.0000 Cl  0  0  0  0  0  0  0  0  0  0  0  0
   10.4971   -2.6390    0.0000 Cl  0  0  0  0  0  0  0  0  0  0  0  0
    7.0816    0.0694    0.0000 O   0  0  0  0  0  0  0  0  0  0  0  0
    6.6334   -1.6037    0.0000 N   0  0  0  0  0  0  0  0  0  0  0  0
    3.4178    1.5870    0.0000 C   0  0  1  0  0  0  0  0  0  0  0  0
    3.1589    2.5529    0.0000 C   0  0  1  0  0  0  0  0  0  0  0  0
    5.1498    0.5870    0.0000 C   0  0  1  0  0  0  0  0  0  0  0  0
    3.8955    3.5355    0.0000 C   0  0  0  0  0  0  0  0  0  0  0  0
    5.6498    1.4530    0.0000 C   0  0  0  0  0  0  0  0  0  0  0  0
    1.5858    0.8282    0.0000 C   0  0  0  0  0  0  0  0  0  0  0  0
    1.3270    1.7941    0.0000 C   0  0  0  0  0  0  0  0  0  0  0  0
    5.4086   -0.3789    0.0000 C   0  0  0  0  0  0  0  0  0  0  0  0
    6.3745   -0.6378    0.0000 C   0  0  0  0  0  0  0  0  0  0  0  0
    7.5993   -1.8625    0.0000 C   0  0  0  0  0  0  0  0  0  0  0  0
    7.8581   -2.8284    0.0000 C   0  0  0  0  0  0  0  0  0  0  0  0
    8.3064   -1.1554    0.0000 C   0  0  0  0  0  0  0  0  0  0  0  0
    8.8240   -3.0872    0.0000 C   0  0  0  0  0  0  0  0  0  0  0  0
    9.2723   -1.4142    0.0000 C   0  0  0  0  0  0  0  0  0  0  0  0
    9.5311   -2.3801    0.0000 C   0  0  0  0  0  0  0  0  0  0  0  0
    3.6378    0.7660    0.0000 H   0  0  0  0  0  0  0  0  0  0  0  0
    2.9389    3.3740    0.0000 H   0  0  0  0  0  0  0  0  0  0  0  0
    4.6579    0.2096    0.0000 H   0  0  0  0  0  0  0  0  0  0  0  0
    3.5777    4.0679    0.0000 H   0  0  0  0  0  0  0  0  0  0  0  0
    4.5087    3.6275    0.0000 H   0  0  0  0  0  0  0  0  0  0  0  0
    5.9204    2.0108    0.0000 H   0  0  0  0  0  0  0  0  0  0  0  0
    6.1975    1.1625    0.0000 H   0  0  0  0  0  0  0  0  0  0  0  0
    1.7978    0.2456    0.0000 H   0  0  0  0  0  0  0  0  0  0  0  0
    0.9945    0.6417    0.0000 H   0  0  0  0  0  0  0  0  0  0  0  0
    0.7357    1.6077    0.0000 H   0  0  0  0  0  0  0  0  0  0  0  0
    1.1149    2.3767    0.0000 H   0  0  0  0  0  0  0  0  0  0  0  0
    5.3546   -0.9966    0.0000 H   0  0  0  0  0  0  0  0  0  0  0  0
    4.7910   -0.4330    0.0000 H   0  0  0  0  0  0  0  0  0  0  0  0
    6.1950   -2.0421    0.0000 H   0  0  0  0  0  0  0  0  0  0  0  0
    8.1459   -0.5565    0.0000 H   0  0  0  0  0  0  0  0  0  0  0  0
    8.9845   -3.6861    0.0000 H   0  0  0  0  0  0  0  0  0  0  0  0
    9.7107   -0.9758    0.0000 H   0  0  0  0  0  0  0  0  0  0  0  0
  1 15  1  0  0  0  0
  2 19  1  0  0  0  0
  3 13  2  0  0  0  0
  4 13  1  0  0  0  0
  4 14  1  0  0  0  0
  4 33  1  0  0  0  0
  5  7  1  0  0  0  0
  5  8  1  0  0  0  0
  5 10  1  0  0  0  0
  5 20  1  1  0  0  0
  6  8  1  0  0  0  0
  6  9  1  0  0  0  0
  6 11  1  0  0  0  0
  6 21  1  6  0  0  0
  7  9  1  0  0  0  0
  7 12  1  1  0  0  0
  7 22  1  0  0  0  0
  8 23  1  0  0  0  0
  8 24  1  0  0  0  0
  9 25  1  0  0  0  0
  9 26  1  0  0  0  0
 10 11  1  0  0  0  0
 10 27  1  0  0  0  0
 10 28  1  0  0  0  0
 11 29  1  0  0  0  0
 11 30  1  0  0  0  0
 12 13  1  0  0  0  0
 12 31  1  0  0  0  0
 12 32  1  0  0  0  0
 14 15  2  0  0  0  0
 14 16  1  0  0  0  0
 15 17  1  0  0  0  0
 16 18  2  0  0  0  0
 16 34  1  0  0  0  0
 17 19  2  0  0  0  0
 17 35  1  0  0  0  0
 18 19  1  0  0  0  0
 18 36  1  0  0  0  0
M  END
> <PUBCHEM_COMPOUND_CID>
11944393

> <PUBCHEM_COMPOUND_CANONICALIZED>
1

> <PUBCHEM_CACTVS_COMPLEXITY>
349

> <PUBCHEM_CACTVS_HBOND_ACCEPTOR>
1

> <PUBCHEM_CACTVS_HBOND_DONOR>
1

> <PUBCHEM_CACTVS_ROTATABLE_BOND>
3

> <PUBCHEM_CACTVS_SUBSKEYS>
AAADceByIAAGAAAAAAAAAAAAAAAAAYMAAAAwYAAAAAAAAAABAAAAHgIQAAAADQqBkCAwwILAAACIACVSUACCAAAhBwAIiAEAZogIIDLBk5HEIAhglADIyAcYiMCOgABAAACAABAAAIQAASAAIQAACAAAAA==

> <PUBCHEM_IUPAC_OPENEYE_NAME>
N-(2,4-dichlorophenyl)-2-[(1R,2S,4S)-norbornan-2-yl]acetamide

> <PUBCHEM_IUPAC_CAS_NAME>
2-[(1S,3S,4R)-3-bicyclo[2.2.1]heptanyl]-N-(2,4-dichlorophenyl)acetamide

> <PUBCHEM_IUPAC_NAME>
2-[(1S,3S,4R)-3-bicyclo[2.2.1]heptanyl]-N-(2,4-dichlorophenyl)acetamide

> <PUBCHEM_IUPAC_SYSTEMATIC_NAME>
2-[(1S,3S,4R)-3-bicyclo[2.2.1]heptanyl]-N-(2,4-dichlorophenyl)ethanamide

> <PUBCHEM_IUPAC_TRADITIONAL_NAME>
N-(2,4-dichlorophenyl)-2-[(1R,2S,4S)-norbornan-2-yl]acetamide

> <PUBCHEM_IUPAC_INCHI>
InChI=1S/C15H17Cl2NO/c16-12-3-4-14(13(17)8-12)18-15(19)7-11-6-9-1-2-10(11)5-9/h3-4,8-11H,1-2,5-7H2,(H,18,19)/t9-,10+,11-/m0/s1

> <PUBCHEM_IUPAC_INCHIKEY>
QNXWJNSEGNDGBD-AXFHLTTASA-N

> <PUBCHEM_XLOGP3>
4.6

> <PUBCHEM_EXACT_MASS>
297.06872

> <PUBCHEM_MOLECULAR_FORMULA>
C15H17Cl2NO

> <PUBCHEM_MOLECULAR_WEIGHT>
298.20758

> <PUBCHEM_OPENEYE_CAN_SMILES>
C1CC2CC1CC2CC(=O)NC3=C(C=C(C=C3)Cl)Cl

> <PUBCHEM_OPENEYE_ISO_SMILES>
C1C[C@@H]2C[C@H]1C[C@H]2CC(=O)NC3=C(C=C(C=C3)Cl)Cl

> <PUBCHEM_CACTVS_TPSA>
29.1

> <PUBCHEM_MONOISOTOPIC_WEIGHT>
297.06872

> <PUBCHEM_TOTAL_CHARGE>
0

> <PUBCHEM_HEAVY_ATOM_COUNT>
19

> <PUBCHEM_ATOM_DEF_STEREO_COUNT>
3

> <PUBCHEM_ATOM_UDEF_STEREO_COUNT>
0

> <PUBCHEM_BOND_DEF_STEREO_COUNT>
0

> <PUBCHEM_BOND_UDEF_STEREO_COUNT>
0

> <PUBCHEM_ISOTOPIC_ATOM_COUNT>
0

> <PUBCHEM_COMPONENT_COUNT>
1

> <PUBCHEM_CACTVS_TAUTO_COUNT>
3

> <PUBCHEM_COORDINATE_TYPE>
1
5
255

> <PUBCHEM_BONDANNOTATIONS>
14  15  8
14  16  8
15  17  8
16  18  8
17  19  8
18  19  8
5  20  5
6  21  6
7  12  5

$$$$
11944394
  -OEChem-12041209372D

 36 38  0     1  0  0  0  0  0999 V2000
    7.1510   -3.5355    0.0000 Cl  0  0  0  0  0  0  0  0  0  0  0  0
   10.4971   -2.6390    0.0000 Cl  0  0  0  0  0  0  0  0  0  0  0  0
    7.0816    0.0694    0.0000 O   0  0  0  0  0  0  0  0  0  0  0  0
    6.6334   -1.6037    0.0000 N   0  0  0  0  0  0  0  0  0  0  0  0
    3.4178    1.5870    0.0000 C   0  0  1  0  0  0  0  0  0  0  0  0
    3.1589    2.5529    0.0000 C   0  0  1  0  0  0  0  0  0  0  0  0
    5.1498    0.5870    0.0000 C   0  0  2  0  0  0  0  0  0  0  0  0
    3.8955    3.5355    0.0000 C   0  0  0  0  0  0  0  0  0  0  0  0
    5.6498    1.4530    0.0000 C   0  0  0  0  0  0  0  0  0  0  0  0
    1.5858    0.8282    0.0000 C   0  0  0  0  0  0  0  0  0  0  0  0
    1.3270    1.7941    0.0000 C   0  0  0  0  0  0  0  0  0  0  0  0
    5.4086   -0.3789    0.0000 C   0  0  0  0  0  0  0  0  0  0  0  0
    6.3745   -0.6378    0.0000 C   0  0  0  0  0  0  0  0  0  0  0  0
    7.5993   -1.8625    0.0000 C   0  0  0  0  0  0  0  0  0  0  0  0
    7.8581   -2.8284    0.0000 C   0  0  0  0  0  0  0  0  0  0  0  0
    8.3064   -1.1554    0.0000 C   0  0  0  0  0  0  0  0  0  0  0  0
    8.8240   -3.0872    0.0000 C   0  0  0  0  0  0  0  0  0  0  0  0
    9.2723   -1.4142    0.0000 C   0  0  0  0  0  0  0  0  0  0  0  0
    9.5311   -2.3801    0.0000 C   0  0  0  0  0  0  0  0  0  0  0  0
    3.6378    0.7660    0.0000 H   0  0  0  0  0  0  0  0  0  0  0  0
    2.9389    3.3740    0.0000 H   0  0  0  0  0  0  0  0  0  0  0  0
    4.6579    0.2096    0.0000 H   0  0  0  0  0  0  0  0  0  0  0  0
    3.5777    4.0679    0.0000 H   0  0  0  0  0  0  0  0  0  0  0  0
    4.5087    3.6275    0.0000 H   0  0  0  0  0  0  0  0  0  0  0  0
    5.9204    2.0108    0.0000 H   0  0  0  0  0  0  0  0  0  0  0  0
    6.1975    1.1625    0.0000 H   0  0  0  0  0  0  0  0  0  0  0  0
    1.7978    0.2456    0.0000 H   0  0  0  0  0  0  0  0  0  0  0  0
    0.9945    0.6417    0.0000 H   0  0  0  0  0  0  0  0  0  0  0  0
    0.7357    1.6077    0.0000 H   0  0  0  0  0  0  0  0  0  0  0  0
    1.1149    2.3767    0.0000 H   0  0  0  0  0  0  0  0  0  0  0  0
    5.3546   -0.9966    0.0000 H   0  0  0  0  0  0  0  0  0  0  0  0
    4.7910   -0.4330    0.0000 H   0  0  0  0  0  0  0  0  0  0  0  0
    6.1950   -2.0421    0.0000 H   0  0  0  0  0  0  0  0  0  0  0  0
    8.1459   -0.5565    0.0000 H   0  0  0  0  0  0  0  0  0  0  0  0
    8.9845   -3.6861    0.0000 H   0  0  0  0  0  0  0  0  0  0  0  0
    9.7107   -0.9758    0.0000 H   0  0  0  0  0  0  0  0  0  0  0  0
  1 15  1  0  0  0  0
  2 19  1  0  0  0  0
  3 13  2  0  0  0  0
  4 13  1  0  0  0  0
  4 14  1  0  0  0  0
  4 33  1  0  0  0  0
  5  7  1  0  0  0  0
  5  8  1  0  0  0  0
  5 10  1  0  0  0  0
  5 20  1  1  0  0  0
  6  8  1  0  0  0  0
  6  9  1  0  0  0  0
  6 11  1  0  0  0  0
  6 21  1  6  0  0  0
  7  9  1  0  0  0  0
  7 12  1  6  0  0  0
  7 22  1  0  0  0  0
  8 23  1  0  0  0  0
  8 24  1  0  0  0  0
  9 25  1  0  0  0  0
  9 26  1  0  0  0  0
 10 11  1  0  0  0  0
 10 27  1  0  0  0  0
 10 28  1  0  0  0  0
 11 29  1  0  0  0  0
 11 30  1  0  0  0  0
 12 13  1  0  0  0  0
 12 31  1  0  0  0  0
 12 32  1  0  0  0  0
 14 15  2  0  0  0  0
 14 16  1  0  0  0  0
 15 17  1  0  0  0  0
 16 18  2  0  0  0  0
 16 34  1  0  0  0  0
 17 19  2  0  0  0  0
 17 35  1  0  0  0  0
 18 19  1  0  0  0  0
 18 36  1  0  0  0  0
M  END
> <PUBCHEM_COMPOUND_CID>
11944394

> <PUBCHEM_COMPOUND_CANONICALIZED>
1

> <PUBCHEM_CACTVS_COMPLEXITY>
349

> <PUBCHEM_CACTVS_HBOND_ACCEPTOR>
1

> <PUBCHEM_CACTVS_HBOND_DONOR>
1

> <PUBCHEM_CACTVS_ROTATABLE_BOND>
3

> <PUBCHEM_CACTVS_SUBSKEYS>
AAADceByIAAGAAAAAAAAAAAAAAAAAYMAAAAwYAAAAAAAAAABAAAAHgIQAAAADQqBkCAwwILAAACIACVSUACCAAAhBwAIiAEAZogIIDLBk5HEIAhglADIyAcYiMCOgABAAACAABAAAIQAASAAIQAACAAAAA==

> <PUBCHEM_IUPAC_OPENEYE_NAME>
N-(2,4-dichlorophenyl)-2-[(1R,2R,4S)-norbornan-2-yl]acetamide

> <PUBCHEM_IUPAC_CAS_NAME>
2-[(1S,3R,4R)-3-bicyclo[2.2.1]heptanyl]-N-(2,4-dichlorophenyl)acetamide

> <PUBCHEM_IUPAC_NAME>
2-[(1S,3R,4R)-3-bicyclo[2.2.1]heptanyl]-N-(2,4-dichlorophenyl)acetamide

> <PUBCHEM_IUPAC_SYSTEMATIC_NAME>
2-[(1S,3R,4R)-3-bicyclo[2.2.1]heptanyl]-N-(2,4-dichlorophenyl)ethanamide

> <PUBCHEM_IUPAC_TRADITIONAL_NAME>
N-(2,4-dichlorophenyl)-2-[(1R,2R,4S)-norbornan-2-yl]acetamide

> <PUBCHEM_IUPAC_INCHI>
InChI=1S/C15H17Cl2NO/c16-12-3-4-14(13(17)8-12)18-15(19)7-11-6-9-1-2-10(11)5-9/h3-4,8-11H,1-2,5-7H2,(H,18,19)/t9-,10+,11+/m0/s1

> <PUBCHEM_IUPAC_INCHIKEY>
QNXWJNSEGNDGBD-HBNTYKKESA-N

> <PUBCHEM_XLOGP3>
4.6

> <PUBCHEM_EXACT_MASS>
297.06872

> <PUBCHEM_MOLECULAR_FORMULA>
C15H17Cl2NO

> <PUBCHEM_MOLECULAR_WEIGHT>
298.20758

> <PUBCHEM_OPENEYE_CAN_SMILES>
C1CC2CC1CC2CC(=O)NC3=C(C=C(C=C3)Cl)Cl

> <PUBCHEM_OPENEYE_ISO_SMILES>
C1C[C@@H]2C[C@H]1C[C@@H]2CC(=O)NC3=C(C=C(C=C3)Cl)Cl

> <PUBCHEM_CACTVS_TPSA>
29.1

> <PUBCHEM_MONOISOTOPIC_WEIGHT>
297.06872

> <PUBCHEM_TOTAL_CHARGE>
0

> <PUBCHEM_HEAVY_ATOM_COUNT>
19

> <PUBCHEM_ATOM_DEF_STEREO_COUNT>
3

> <PUBCHEM_ATOM_UDEF_STEREO_COUNT>
0

> <PUBCHEM_BOND_DEF_STEREO_COUNT>
0

> <PUBCHEM_BOND_UDEF_STEREO_COUNT>
0

> <PUBCHEM_ISOTOPIC_ATOM_COUNT>
0

> <PUBCHEM_COMPONENT_COUNT>
1

> <PUBCHEM_CACTVS_TAUTO_COUNT>
3

> <PUBCHEM_COORDINATE_TYPE>
1
5
255

> <PUBCHEM_BONDANNOTATIONS>
14  15  8
14  16  8
15  17  8
16  18  8
17  19  8
18  19  8
5  20  5
6  21  6
7  12  6

$$$$
11947744
  -OEChem-12041209382D

 38 41  0     1  0  0  0  0  0999 V2000
    5.1102    1.2269    0.0000 N   0  0  0  0  0  0  0  0  0  0  0  0
    4.6660   -0.2641    0.0000 C   0  0  2  0  0  0  0  0  0  0  0  0
    5.5321    0.2359    0.0000 C   0  0  2  0  0  0  0  0  0  0  0  0
    5.5321    1.2359    0.0000 C   0  0  2  0  0  0  0  0  0  0  0  0
    4.6500   -1.3056    0.0000 C   0  0  0  0  0  0  0  0  0  0  0  0
    4.4629    0.1059    0.0000 C   0  0  0  0  0  0  0  0  0  0  0  0
    6.4421   -0.2709    0.0000 C   0  0  0  0  0  0  0  0  0  0  0  0
    3.8000    0.2359    0.0000 C   0  0  0  0  0  0  0  0  0  0  0  0
    4.6660    1.7359    0.0000 C   0  0  0  0  0  0  0  0  0  0  0  0
    5.5480   -1.8333    0.0000 C   0  0  0  0  0  0  0  0  0  0  0  0
    6.4501   -1.3125    0.0000 C   0  0  0  0  0  0  0  0  0  0  0  0
    4.3793    0.9015    0.0000 C   0  0  0  0  0  0  0  0  0  0  0  0
    3.8000    1.2359    0.0000 C   0  0  0  0  0  0  0  0  0  0  0  0
    2.9061   -0.2987    0.0000 C   0  0  0  0  0  0  0  0  0  0  0  0
    2.9061    1.7706    0.0000 C   0  0  0  0  0  0  0  0  0  0  0  0
    2.0000    0.2151    0.0000 C   0  0  0  0  0  0  0  0  0  0  0  0
    2.0000    1.2568    0.0000 C   0  0  0  0  0  0  0  0  0  0  0  0
    6.2682    0.6609    0.0000 H   0  0  0  0  0  0  0  0  0  0  0  0
    5.9571    1.9721    0.0000 H   0  0  0  0  0  0  0  0  0  0  0  0
    4.0408   -1.1901    0.0000 H   0  0  0  0  0  0  0  0  0  0  0  0
    4.4319   -1.8860    0.0000 H   0  0  0  0  0  0  0  0  0  0  0  0
    3.8682    0.2810    0.0000 H   0  0  0  0  0  0  0  0  0  0  0  0
    5.0546    0.2911    0.0000 H   0  0  0  0  0  0  0  0  0  0  0  0
    7.0537   -0.3723    0.0000 H   0  0  0  0  0  0  0  0  0  0  0  0
    6.6466    0.3144    0.0000 H   0  0  0  0  0  0  0  0  0  0  0  0
    5.0646    2.2109    0.0000 H   0  0  0  0  0  0  0  0  0  0  0  0
    4.2675    2.2109    0.0000 H   0  0  0  0  0  0  0  0  0  0  0  0
    5.1470   -2.3062    0.0000 H   0  0  0  0  0  0  0  0  0  0  0  0
    5.9453   -2.3093    0.0000 H   0  0  0  0  0  0  0  0  0  0  0  0
    6.6636   -1.8946    0.0000 H   0  0  0  0  0  0  0  0  0  0  0  0
    7.0601   -1.2017    0.0000 H   0  0  0  0  0  0  0  0  0  0  0  0
    4.1877    1.4911    0.0000 H   0  0  0  0  0  0  0  0  0  0  0  0
    3.7729    0.7726    0.0000 H   0  0  0  0  0  0  0  0  0  0  0  0
    5.2391    1.8333    0.0000 H   0  0  0  0  0  0  0  0  0  0  0  0
    2.9132   -0.9187    0.0000 H   0  0  0  0  0  0  0  0  0  0  0  0
    2.9132    2.3906    0.0000 H   0  0  0  0  0  0  0  0  0  0  0  0
    1.4643   -0.0969    0.0000 H   0  0  0  0  0  0  0  0  0  0  0  0
    1.4643    1.5688    0.0000 H   0  0  0  0  0  0  0  0  0  0  0  0
  1  4  1  0  0  0  0
  1 12  1  0  0  0  0
  1 34  1  0  0  0  0
  2  3  1  0  0  0  0
  2  5  1  6  0  0  0
  2  6  1  0  0  0  0
  2  8  1  0  0  0  0
  3  4  1  0  0  0  0
  3  7  1  0  0  0  0
  3 18  1  1  0  0  0
  4  9  1  0  0  0  0
  4 19  1  6  0  0  0
  5 10  1  0  0  0  0
  5 20  1  0  0  0  0
  5 21  1  0  0  0  0
  6 12  1  0  0  0  0
  6 22  1  0  0  0  0
  6 23  1  0  0  0  0
  7 11  1  0  0  0  0
  7 24  1  0  0  0  0
  7 25  1  0  0  0  0
  8 13  1  0  0  0  0
  8 14  2  0  0  0  0
  9 13  1  0  0  0  0
  9 26  1  0  0  0  0
  9 27  1  0  0  0  0
 10 11  1  0  0  0  0
 10 28  1  0  0  0  0
 10 29  1  0  0  0  0
 11 30  1  0  0  0  0
 11 31  1  0  0  0  0
 12 32  1  0  0  0  0
 12 33  1  0  0  0  0
 13 15  2  0  0  0  0
 14 16  1  0  0  0  0
 14 35  1  0  0  0  0
 15 17  1  0  0  0  0
 15 36  1  0  0  0  0
 16 17  2  0  0  0  0
 16 37  1  0  0  0  0
 17 38  1  0  0  0  0
M  END
> <PUBCHEM_COMPOUND_CID>
11947744

> <PUBCHEM_COMPOUND_CANONICALIZED>
1

> <PUBCHEM_CACTVS_COMPLEXITY>
300

> <PUBCHEM_CACTVS_HBOND_ACCEPTOR>
1

> <PUBCHEM_CACTVS_HBOND_DONOR>
1

> <PUBCHEM_CACTVS_ROTATABLE_BOND>
0

> <PUBCHEM_CACTVS_SUBSKEYS>
AAADceB6AAAAAAAAAAAAAAAAAAAAAAAAAAA8YMEAAAAWAADxAAAAHAAQAAAADyjBGAQwAILAAACAAiBCAAACAAAgAAAIiIAIAIgIICKAkRGEIAAgkACIiAcQgMAPgAAAAAAQAACQAASAACQAAAAAAAAAAA==

> <PUBCHEM_IUPAC_INCHI>
InChI=1S/C16H21N/c1-2-6-13-12(5-1)11-15-14-7-3-4-8-16(13,14)9-10-17-15/h1-2,5-6,14-15,17H,3-4,7-11H2/t14-,15-,16+/m0/s1

> <PUBCHEM_IUPAC_INCHIKEY>
INAXVFBXDYWQFN-HRCADAONSA-N

> <PUBCHEM_XLOGP3>
3

> <PUBCHEM_EXACT_MASS>
227.1674

> <PUBCHEM_MOLECULAR_FORMULA>
C16H21N

> <PUBCHEM_MOLECULAR_WEIGHT>
227.34464

> <PUBCHEM_OPENEYE_CAN_SMILES>
C1CCC23CCNC(C2C1)CC4=CC=CC=C34

> <PUBCHEM_OPENEYE_ISO_SMILES>
C1CC[C@]23CCN[C@H]([C@@H]2C1)CC4=CC=CC=C34

> <PUBCHEM_CACTVS_TPSA>
12

> <PUBCHEM_MONOISOTOPIC_WEIGHT>
227.1674

> <PUBCHEM_TOTAL_CHARGE>
0

> <PUBCHEM_HEAVY_ATOM_COUNT>
17

> <PUBCHEM_ATOM_DEF_STEREO_COUNT>
3

> <PUBCHEM_ATOM_UDEF_STEREO_COUNT>
0

> <PUBCHEM_BOND_DEF_STEREO_COUNT>
0

> <PUBCHEM_BOND_UDEF_STEREO_COUNT>
0

> <PUBCHEM_ISOTOPIC_ATOM_COUNT>
0

> <PUBCHEM_COMPONENT_COUNT>
1

> <PUBCHEM_CACTVS_TAUTO_COUNT>
1

> <PUBCHEM_COORDINATE_TYPE>
1
5
255

> <PUBCHEM_BONDANNOTATIONS>
13  15  8
14  16  8
15  17  8
16  17  8
2  5  6
3  18  5
4  19  6
8  13  8
8  14  8

$$$$
11949785
  -OEChem-12041209382D

 44 46  0     1  0  0  0  0  0999 V2000
    8.9942   -1.4021    0.0000 Cl  0  0  0  0  0  0  0  0  0  0  0  0
    5.4641   -3.4263    0.0000 S   0  0  0  0  0  0  0  0  0  0  0  0
    8.9942   -3.4504    0.0000 S   0  0  0  0  0  0  0  0  0  0  0  0
    4.9641   -4.2923    0.0000 O   0  0  0  0  0  0  0  0  0  0  0  0
    5.9641   -4.2923    0.0000 O   0  0  0  0  0  0  0  0  0  0  0  0
    8.4909   -4.3145    0.0000 O   0  0  0  0  0  0  0  0  0  0  0  0
    9.4976   -2.5863    0.0000 O   0  0  0  0  0  0  0  0  0  0  0  0
    2.8660    3.0737    0.0000 O   0  0  0  0  0  0  0  0  0  0  0  0
    2.0000    4.5737    0.0000 O   0  5  0  0  0  0  0  0  0  0  0  0
    3.7320    4.5737    0.0000 O   0  0  0  0  0  0  0  0  0  0  0  0
    4.5981   -2.9263    0.0000 N   0  0  0  0  0  0  0  0  0  0  0  0
    5.4641   -1.4263    0.0000 N   0  0  0  0  0  0  0  0  0  0  0  0
    9.8583   -3.9537    0.0000 N   0  0  0  0  0  0  0  0  0  0  0  0
    2.8660    4.0737    0.0000 N   0  3  0  0  0  0  0  0  0  0  0  0
    4.5981   -1.9263    0.0000 C   0  0  3  0  0  0  0  0  0  0  0  0
    3.7320   -1.4263    0.0000 C   0  0  0  0  0  0  0  0  0  0  0  0
    6.3301   -2.9263    0.0000 C   0  0  0  0  0  0  0  0  0  0  0  0
    6.3301   -1.9263    0.0000 C   0  0  0  0  0  0  0  0  0  0  0  0
    3.7320   -0.4263    0.0000 C   0  0  0  0  0  0  0  0  0  0  0  0
    7.2241   -3.4609    0.0000 C   0  0  0  0  0  0  0  0  0  0  0  0
    7.2241   -1.3916    0.0000 C   0  0  0  0  0  0  0  0  0  0  0  0
    8.1301   -2.9471    0.0000 C   0  0  0  0  0  0  0  0  0  0  0  0
    8.1301   -1.9054    0.0000 C   0  0  0  0  0  0  0  0  0  0  0  0
    4.5981    0.0737    0.0000 C   0  0  0  0  0  0  0  0  0  0  0  0
    2.8660    0.0737    0.0000 C   0  0  0  0  0  0  0  0  0  0  0  0
    4.5981    1.0737    0.0000 C   0  0  0  0  0  0  0  0  0  0  0  0
    2.8660    1.0737    0.0000 C   0  0  0  0  0  0  0  0  0  0  0  0
    3.7320    1.5737    0.0000 C   0  0  0  0  0  0  0  0  0  0  0  0
    3.7320    2.5737    0.0000 C   0  0  0  0  0  0  0  0  0  0  0  0
    4.5981   -1.3063    0.0000 H   0  0  0  0  0  0  0  0  0  0  0  0
    3.1215   -1.3186    0.0000 H   0  0  0  0  0  0  0  0  0  0  0  0
    3.5200   -2.0089    0.0000 H   0  0  0  0  0  0  0  0  0  0  0  0
    4.0611   -3.2363    0.0000 H   0  0  0  0  0  0  0  0  0  0  0  0
    5.4641   -0.8063    0.0000 H   0  0  0  0  0  0  0  0  0  0  0  0
    7.2169   -4.0809    0.0000 H   0  0  0  0  0  0  0  0  0  0  0  0
    7.2169   -0.7716    0.0000 H   0  0  0  0  0  0  0  0  0  0  0  0
    5.1350   -0.2363    0.0000 H   0  0  0  0  0  0  0  0  0  0  0  0
    2.3291   -0.2363    0.0000 H   0  0  0  0  0  0  0  0  0  0  0  0
    5.1350    1.3837    0.0000 H   0  0  0  0  0  0  0  0  0  0  0  0
    2.3291    1.3837    0.0000 H   0  0  0  0  0  0  0  0  0  0  0  0
    4.3426    2.4661    0.0000 H   0  0  0  0  0  0  0  0  0  0  0  0
    3.9441    3.1564    0.0000 H   0  0  0  0  0  0  0  0  0  0  0  0
   10.3964   -3.6458    0.0000 H   0  0  0  0  0  0  0  0  0  0  0  0
    9.8559   -4.5737    0.0000 H   0  0  0  0  0  0  0  0  0  0  0  0
  1 23  1  0  0  0  0
  2  4  2  0  0  0  0
  2  5  2  0  0  0  0
  2 11  1  0  0  0  0
  2 17  1  0  0  0  0
  3  6  2  0  0  0  0
  3  7  2  0  0  0  0
  3 13  1  0  0  0  0
  3 22  1  0  0  0  0
  8 14  1  0  0  0  0
  8 29  1  0  0  0  0
  9 14  1  0  0  0  0
 10 14  2  0  0  0  0
 11 15  1  0  0  0  0
 11 33  1  0  0  0  0
 12 15  1  0  0  0  0
 12 18  1  0  0  0  0
 12 34  1  0  0  0  0
 13 43  1  0  0  0  0
 13 44  1  0  0  0  0
 15 16  1  0  0  0  0
 15 30  1  0  0  0  0
 16 19  1  0  0  0  0
 16 31  1  0  0  0  0
 16 32  1  0  0  0  0
 17 18  1  0  0  0  0
 17 20  2  0  0  0  0
 18 21  2  0  0  0  0
 19 24  2  0  0  0  0
 19 25  1  0  0  0  0
 20 22  1  0  0  0  0
 20 35  1  0  0  0  0
 21 23  1  0  0  0  0
 21 36  1  0  0  0  0
 22 23  2  0  0  0  0
 24 26  1  0  0  0  0
 24 37  1  0  0  0  0
 25 27  2  0  0  0  0
 25 38  1  0  0  0  0
 26 28  2  0  0  0  0
 26 39  1  0  0  0  0
 27 28  1  0  0  0  0
 27 40  1  0  0  0  0
 28 29  1  0  0  0  0
 29 41  1  0  0  0  0
 29 42  1  0  0  0  0
M  CHG  2   9  -1  14   1
M  END
> <PUBCHEM_COMPOUND_CID>
11949785

> <PUBCHEM_COMPOUND_CANONICALIZED>
1

> <PUBCHEM_CACTVS_COMPLEXITY>
800

> <PUBCHEM_CACTVS_HBOND_ACCEPTOR>
10

> <PUBCHEM_CACTVS_HBOND_DONOR>
3

> <PUBCHEM_CACTVS_ROTATABLE_BOND>
5

> <PUBCHEM_CACTVS_SUBSKEYS>
AAADccBzuABkAAAAAAAAAAAAAAAAAAAAAAA8YIAAAAAAAACxQAAAHgYUQAAADArh2CYxwYLAQAKBAiRCQXDCABAhBwAIiJwIboiIJiLBk5GEMAhk0APIyCeQwPAOQAYAAEIAAYCADAAAhAADAAAAAAAAAA==

> <PUBCHEM_IUPAC_OPENEYE_NAME>
[4-[(6-chloro-1,1-dioxo-7-sulfamoyl-3,4-dihydro-2H-1$l^{6},2,4-benzothiadiazin-3-yl)methyl]phenyl]methyl nitrate

> <PUBCHEM_IUPAC_CAS_NAME>
nitric acid [4-[(6-chloro-1,1-dioxo-7-sulfamoyl-3,4-dihydro-2H-1$l^{6},2,4-benzothiadiazin-3-yl)methyl]phenyl]methyl ester

> <PUBCHEM_IUPAC_NAME>
[4-[(6-chloro-1,1-dioxo-7-sulfamoyl-3,4-dihydro-2H-1$l^{6},2,4-benzothiadiazin-3-yl)methyl]phenyl]methyl nitrate

> <PUBCHEM_IUPAC_SYSTEMATIC_NAME>
[4-[[6-chloranyl-1,1-bis(oxidanylidene)-7-sulfamoyl-3,4-dihydro-2H-1$l^{6},2,4-benzothiadiazin-3-yl]methyl]phenyl]methyl nitrate

> <PUBCHEM_IUPAC_TRADITIONAL_NAME>
nitric acid [4-[(6-chloro-1,1-diketo-7-sulfamoyl-3,4-dihydro-2H-1$l^{6},2,4-benzothiadiazin-3-yl)methyl]benzyl] ester

> <PUBCHEM_IUPAC_INCHI>
InChI=1S/C15H15ClN4O7S2/c16-11-6-12-14(7-13(11)28(17,23)24)29(25,26)19-15(18-12)5-9-1-3-10(4-2-9)8-27-20(21)22/h1-4,6-7,15,18-19H,5,8H2,(H2,17,23,24)

> <PUBCHEM_IUPAC_INCHIKEY>
RGUFWGIYOGTJKU-UHFFFAOYSA-N

> <PUBCHEM_XLOGP3>
1

> <PUBCHEM_EXACT_MASS>
462.007069

> <PUBCHEM_MOLECULAR_FORMULA>
C15H15ClN4O7S2

> <PUBCHEM_MOLECULAR_WEIGHT>
462.8852

> <PUBCHEM_OPENEYE_CAN_SMILES>
C1=CC(=CC=C1CC2NC3=CC(=C(C=C3S(=O)(=O)N2)S(=O)(=O)N)Cl)CO[N+](=O)[O-]

> <PUBCHEM_OPENEYE_ISO_SMILES>
C1=CC(=CC=C1CC2NC3=CC(=C(C=C3S(=O)(=O)N2)S(=O)(=O)N)Cl)CO[N+](=O)[O-]

> <PUBCHEM_CACTVS_TPSA>
190

> <PUBCHEM_MONOISOTOPIC_WEIGHT>
462.007069

> <PUBCHEM_TOTAL_CHARGE>
0

> <PUBCHEM_HEAVY_ATOM_COUNT>
29

> <PUBCHEM_ATOM_DEF_STEREO_COUNT>
0

> <PUBCHEM_ATOM_UDEF_STEREO_COUNT>
1

> <PUBCHEM_BOND_DEF_STEREO_COUNT>
0

> <PUBCHEM_BOND_UDEF_STEREO_COUNT>
0

> <PUBCHEM_ISOTOPIC_ATOM_COUNT>
0

> <PUBCHEM_COMPONENT_COUNT>
1

> <PUBCHEM_CACTVS_TAUTO_COUNT>
1

> <PUBCHEM_COORDINATE_TYPE>
1
5
255

> <PUBCHEM_BONDANNOTATIONS>
15  16  3
17  18  8
17  20  8
18  21  8
19  24  8
19  25  8
20  22  8
21  23  8
22  23  8
24  26  8
25  27  8
26  28  8
27  28  8

$$$$
