9068455
  -OEChem-11301217062D

 33 34  0     1  0  0  0  0  0999 V2000
    2.0000   -2.6012    0.0000 Cl  0  0  0  0  0  0  0  0  0  0  0  0
    5.4641    0.3988    0.0000 O   0  0  0  0  0  0  0  0  0  0  0  0
    3.7320    0.3988    0.0000 N   0  0  0  0  0  0  0  0  0  0  0  0
    5.4641    2.3988    0.0000 C   0  0  1  0  0  0  0  0  0  0  0  0
    6.3776    1.9920    0.0000 C   0  0  0  0  0  0  0  0  0  0  0  0
    7.0468    2.7352    0.0000 C   0  0  0  0  0  0  0  0  0  0  0  0
    4.5981    1.8988    0.0000 C   0  0  0  0  0  0  0  0  0  0  0  0
    5.5686    3.3933    0.0000 C   0  0  0  0  0  0  0  0  0  0  0  0
    6.5468    3.6012    0.0000 C   0  0  0  0  0  0  0  0  0  0  0  0
    4.5981    0.8988    0.0000 C   0  0  0  0  0  0  0  0  0  0  0  0
    3.7320   -0.6012    0.0000 C   0  0  0  0  0  0  0  0  0  0  0  0
    2.8660   -1.1012    0.0000 C   0  0  0  0  0  0  0  0  0  0  0  0
    4.5981   -1.1012    0.0000 C   0  0  0  0  0  0  0  0  0  0  0  0
    3.7320   -2.6012    0.0000 C   0  0  0  0  0  0  0  0  0  0  0  0
    2.8660   -2.1012    0.0000 C   0  0  0  0  0  0  0  0  0  0  0  0
    4.5981   -2.1012    0.0000 C   0  0  0  0  0  0  0  0  0  0  0  0
    3.7320   -3.6012    0.0000 C   0  0  0  0  0  0  0  0  0  0  0  0
    4.9441    2.7365    0.0000 H   0  0  0  0  0  0  0  0  0  0  0  0
    6.0677    1.4551    0.0000 H   0  0  0  0  0  0  0  0  0  0  0  0
    6.8792    1.6276    0.0000 H   0  0  0  0  0  0  0  0  0  0  0  0
    7.4616    2.2744    0.0000 H   0  0  0  0  0  0  0  0  0  0  0  0
    7.5484    3.0996    0.0000 H   0  0  0  0  0  0  0  0  0  0  0  0
    4.3860    2.4814    0.0000 H   0  0  0  0  0  0  0  0  0  0  0  0
    3.9875    1.7911    0.0000 H   0  0  0  0  0  0  0  0  0  0  0  0
    5.1079    3.8082    0.0000 H   0  0  0  0  0  0  0  0  0  0  0  0
    6.7990    4.1676    0.0000 H   0  0  0  0  0  0  0  0  0  0  0  0
    3.1951    0.7088    0.0000 H   0  0  0  0  0  0  0  0  0  0  0  0
    2.3291   -0.7912    0.0000 H   0  0  0  0  0  0  0  0  0  0  0  0
    5.1350   -0.7912    0.0000 H   0  0  0  0  0  0  0  0  0  0  0  0
    5.1350   -2.4112    0.0000 H   0  0  0  0  0  0  0  0  0  0  0  0
    3.1120   -3.6012    0.0000 H   0  0  0  0  0  0  0  0  0  0  0  0
    3.7320   -4.2212    0.0000 H   0  0  0  0  0  0  0  0  0  0  0  0
    4.3520   -3.6012    0.0000 H   0  0  0  0  0  0  0  0  0  0  0  0
  1 15  1  0  0  0  0
  2 10  2  0  0  0  0
  3 10  1  0  0  0  0
  3 11  1  0  0  0  0
  3 27  1  0  0  0  0
  4  5  1  0  0  0  0
  4  7  1  1  0  0  0
  4  8  1  0  0  0  0
  4 18  1  0  0  0  0
  5  6  1  0  0  0  0
  5 19  1  0  0  0  0
  5 20  1  0  0  0  0
  6  9  1  0  0  0  0
  6 21  1  0  0  0  0
  6 22  1  0  0  0  0
  7 10  1  0  0  0  0
  7 23  1  0  0  0  0
  7 24  1  0  0  0  0
  8  9  2  0  0  0  0
  8 25  1  0  0  0  0
  9 26  1  0  0  0  0
 11 12  2  0  0  0  0
 11 13  1  0  0  0  0
 12 15  1  0  0  0  0
 12 28  1  0  0  0  0
 13 16  2  0  0  0  0
 13 29  1  0  0  0  0
 14 15  2  0  0  0  0
 14 16  1  0  0  0  0
 14 17  1  0  0  0  0
 16 30  1  0  0  0  0
 17 31  1  0  0  0  0
 17 32  1  0  0  0  0
 17 33  1  0  0  0  0
M  END
> <PUBCHEM_COMPOUND_CID>
9068455

> <PUBCHEM_COMPOUND_CANONICALIZED>
1

> <PUBCHEM_CACTVS_COMPLEXITY>
303

> <PUBCHEM_CACTVS_HBOND_ACCEPTOR>
1

> <PUBCHEM_CACTVS_HBOND_DONOR>
1

> <PUBCHEM_CACTVS_ROTATABLE_BOND>
3

> <PUBCHEM_CACTVS_SUBSKEYS>
AAADceByIAAEAAAAAAAAAAAAAAAAAQAAAAAwAAAAAAAAAAABAAAAHgIQAAAADQqBmCAywILAAACIAiVSUACCAAAhBwAIiAEAZogIIDLBk5GEIAhglADIyAcYiAAOCAAAAAIBAAAQAAAABAIAAAAAAAAAAA==

> <PUBCHEM_IUPAC_OPENEYE_NAME>
N-(3-chloro-4-methyl-phenyl)-2-[(1S)-cyclopent-2-en-1-yl]acetamide

> <PUBCHEM_IUPAC_CAS_NAME>
N-(3-chloro-4-methylphenyl)-2-[(1S)-1-cyclopent-2-enyl]acetamide

> <PUBCHEM_IUPAC_NAME>
N-(3-chloro-4-methylphenyl)-2-[(1S)-cyclopent-2-en-1-yl]acetamide

> <PUBCHEM_IUPAC_SYSTEMATIC_NAME>
N-(3-chloranyl-4-methyl-phenyl)-2-[(1S)-cyclopent-2-en-1-yl]ethanamide

> <PUBCHEM_IUPAC_TRADITIONAL_NAME>
N-(3-chloro-4-methyl-phenyl)-2-[(1S)-cyclopent-2-en-1-yl]acetamide

> <PUBCHEM_IUPAC_INCHI>
InChI=1S/C14H16ClNO/c1-10-6-7-12(9-13(10)15)16-14(17)8-11-4-2-3-5-11/h2,4,6-7,9,11H,3,5,8H2,1H3,(H,16,17)/t11-/m0/s1

> <PUBCHEM_IUPAC_INCHIKEY>
PYQWWTMOLPCSEZ-NSHDSACASA-N

> <PUBCHEM_XLOGP3>
4.1

> <PUBCHEM_EXACT_MASS>
249.092042

> <PUBCHEM_MOLECULAR_FORMULA>
C14H16ClNO

> <PUBCHEM_MOLECULAR_WEIGHT>
249.73594

> <PUBCHEM_OPENEYE_CAN_SMILES>
CC1=C(C=C(C=C1)NC(=O)CC2CCC=C2)Cl

> <PUBCHEM_OPENEYE_ISO_SMILES>
CC1=C(C=C(C=C1)NC(=O)C[C@@H]2CCC=C2)Cl

> <PUBCHEM_CACTVS_TPSA>
29.1

> <PUBCHEM_MONOISOTOPIC_WEIGHT>
249.092042

> <PUBCHEM_TOTAL_CHARGE>
0

> <PUBCHEM_HEAVY_ATOM_COUNT>
17

> <PUBCHEM_ATOM_DEF_STEREO_COUNT>
1

> <PUBCHEM_ATOM_UDEF_STEREO_COUNT>
0

> <PUBCHEM_BOND_DEF_STEREO_COUNT>
0

> <PUBCHEM_BOND_UDEF_STEREO_COUNT>
0

> <PUBCHEM_ISOTOPIC_ATOM_COUNT>
0

> <PUBCHEM_COMPONENT_COUNT>
1

> <PUBCHEM_CACTVS_TAUTO_COUNT>
3

> <PUBCHEM_COORDINATE_TYPE>
1
5
255

> <PUBCHEM_BONDANNOTATIONS>
11  12  8
11  13  8
12  15  8
13  16  8
14  15  8
14  16  8
4  7  5

$$$$
9068457
  -OEChem-11301217062D

 33 34  0     1  0  0  0  0  0999 V2000
    2.0000   -2.6012    0.0000 Cl  0  0  0  0  0  0  0  0  0  0  0  0
    5.4641    0.3988    0.0000 O   0  0  0  0  0  0  0  0  0  0  0  0
    3.7320    0.3988    0.0000 N   0  0  0  0  0  0  0  0  0  0  0  0
    5.4641    2.3988    0.0000 C   0  0  2  0  0  0  0  0  0  0  0  0
    6.3776    1.9920    0.0000 C   0  0  0  0  0  0  0  0  0  0  0  0
    7.0468    2.7352    0.0000 C   0  0  0  0  0  0  0  0  0  0  0  0
    4.5981    1.8988    0.0000 C   0  0  0  0  0  0  0  0  0  0  0  0
    5.5686    3.3933    0.0000 C   0  0  0  0  0  0  0  0  0  0  0  0
    6.5468    3.6012    0.0000 C   0  0  0  0  0  0  0  0  0  0  0  0
    4.5981    0.8988    0.0000 C   0  0  0  0  0  0  0  0  0  0  0  0
    3.7320   -0.6012    0.0000 C   0  0  0  0  0  0  0  0  0  0  0  0
    2.8660   -1.1012    0.0000 C   0  0  0  0  0  0  0  0  0  0  0  0
    4.5981   -1.1012    0.0000 C   0  0  0  0  0  0  0  0  0  0  0  0
    3.7320   -2.6012    0.0000 C   0  0  0  0  0  0  0  0  0  0  0  0
    2.8660   -2.1012    0.0000 C   0  0  0  0  0  0  0  0  0  0  0  0
    4.5981   -2.1012    0.0000 C   0  0  0  0  0  0  0  0  0  0  0  0
    3.7320   -3.6012    0.0000 C   0  0  0  0  0  0  0  0  0  0  0  0
    4.9441    2.7365    0.0000 H   0  0  0  0  0  0  0  0  0  0  0  0
    6.0677    1.4551    0.0000 H   0  0  0  0  0  0  0  0  0  0  0  0
    6.8792    1.6276    0.0000 H   0  0  0  0  0  0  0  0  0  0  0  0
    7.4616    2.2744    0.0000 H   0  0  0  0  0  0  0  0  0  0  0  0
    7.5484    3.0996    0.0000 H   0  0  0  0  0  0  0  0  0  0  0  0
    4.3860    2.4814    0.0000 H   0  0  0  0  0  0  0  0  0  0  0  0
    3.9875    1.7911    0.0000 H   0  0  0  0  0  0  0  0  0  0  0  0
    5.1079    3.8082    0.0000 H   0  0  0  0  0  0  0  0  0  0  0  0
    6.7990    4.1676    0.0000 H   0  0  0  0  0  0  0  0  0  0  0  0
    3.1951    0.7088    0.0000 H   0  0  0  0  0  0  0  0  0  0  0  0
    2.3291   -0.7912    0.0000 H   0  0  0  0  0  0  0  0  0  0  0  0
    5.1350   -0.7912    0.0000 H   0  0  0  0  0  0  0  0  0  0  0  0
    5.1350   -2.4112    0.0000 H   0  0  0  0  0  0  0  0  0  0  0  0
    3.1120   -3.6012    0.0000 H   0  0  0  0  0  0  0  0  0  0  0  0
    3.7320   -4.2212    0.0000 H   0  0  0  0  0  0  0  0  0  0  0  0
    4.3520   -3.6012    0.0000 H   0  0  0  0  0  0  0  0  0  0  0  0
  1 15  1  0  0  0  0
  2 10  2  0  0  0  0
  3 10  1  0  0  0  0
  3 11  1  0  0  0  0
  3 27  1  0  0  0  0
  4  5  1  0  0  0  0
  4  7  1  6  0  0  0
  4  8  1  0  0  0  0
  4 18  1  0  0  0  0
  5  6  1  0  0  0  0
  5 19  1  0  0  0  0
  5 20  1  0  0  0  0
  6  9  1  0  0  0  0
  6 21  1  0  0  0  0
  6 22  1  0  0  0  0
  7 10  1  0  0  0  0
  7 23  1  0  0  0  0
  7 24  1  0  0  0  0
  8  9  2  0  0  0  0
  8 25  1  0  0  0  0
  9 26  1  0  0  0  0
 11 12  2  0  0  0  0
 11 13  1  0  0  0  0
 12 15  1  0  0  0  0
 12 28  1  0  0  0  0
 13 16  2  0  0  0  0
 13 29  1  0  0  0  0
 14 15  2  0  0  0  0
 14 16  1  0  0  0  0
 14 17  1  0  0  0  0
 16 30  1  0  0  0  0
 17 31  1  0  0  0  0
 17 32  1  0  0  0  0
 17 33  1  0  0  0  0
M  END
> <PUBCHEM_COMPOUND_CID>
9068457

> <PUBCHEM_COMPOUND_CANONICALIZED>
1

> <PUBCHEM_CACTVS_COMPLEXITY>
303

> <PUBCHEM_CACTVS_HBOND_ACCEPTOR>
1

> <PUBCHEM_CACTVS_HBOND_DONOR>
1

> <PUBCHEM_CACTVS_ROTATABLE_BOND>
3

> <PUBCHEM_CACTVS_SUBSKEYS>
AAADceByIAAEAAAAAAAAAAAAAAAAAQAAAAAwAAAAAAAAAAABAAAAHgIQAAAADQqBmCAywILAAACIAiVSUACCAAAhBwAIiAEAZogIIDLBk5GEIAhglADIyAcYiAAOCAAAAAIBAAAQAAAABAIAAAAAAAAAAA==

> <PUBCHEM_IUPAC_OPENEYE_NAME>
N-(3-chloro-4-methyl-phenyl)-2-[(1R)-cyclopent-2-en-1-yl]acetamide

> <PUBCHEM_IUPAC_CAS_NAME>
N-(3-chloro-4-methylphenyl)-2-[(1R)-1-cyclopent-2-enyl]acetamide

> <PUBCHEM_IUPAC_NAME>
N-(3-chloro-4-methylphenyl)-2-[(1R)-cyclopent-2-en-1-yl]acetamide

> <PUBCHEM_IUPAC_SYSTEMATIC_NAME>
N-(3-chloranyl-4-methyl-phenyl)-2-[(1R)-cyclopent-2-en-1-yl]ethanamide

> <PUBCHEM_IUPAC_TRADITIONAL_NAME>
N-(3-chloro-4-methyl-phenyl)-2-[(1R)-cyclopent-2-en-1-yl]acetamide

> <PUBCHEM_IUPAC_INCHI>
InChI=1S/C14H16ClNO/c1-10-6-7-12(9-13(10)15)16-14(17)8-11-4-2-3-5-11/h2,4,6-7,9,11H,3,5,8H2,1H3,(H,16,17)/t11-/m1/s1

> <PUBCHEM_IUPAC_INCHIKEY>
PYQWWTMOLPCSEZ-LLVKDONJSA-N

> <PUBCHEM_XLOGP3>
4.1

> <PUBCHEM_EXACT_MASS>
249.092042

> <PUBCHEM_MOLECULAR_FORMULA>
C14H16ClNO

> <PUBCHEM_MOLECULAR_WEIGHT>
249.73594

> <PUBCHEM_OPENEYE_CAN_SMILES>
CC1=C(C=C(C=C1)NC(=O)CC2CCC=C2)Cl

> <PUBCHEM_OPENEYE_ISO_SMILES>
CC1=C(C=C(C=C1)NC(=O)C[C@H]2CCC=C2)Cl

> <PUBCHEM_CACTVS_TPSA>
29.1

> <PUBCHEM_MONOISOTOPIC_WEIGHT>
249.092042

> <PUBCHEM_TOTAL_CHARGE>
0

> <PUBCHEM_HEAVY_ATOM_COUNT>
17

> <PUBCHEM_ATOM_DEF_STEREO_COUNT>
1

> <PUBCHEM_ATOM_UDEF_STEREO_COUNT>
0

> <PUBCHEM_BOND_DEF_STEREO_COUNT>
0

> <PUBCHEM_BOND_UDEF_STEREO_COUNT>
0

> <PUBCHEM_ISOTOPIC_ATOM_COUNT>
0

> <PUBCHEM_COMPONENT_COUNT>
1

> <PUBCHEM_CACTVS_TAUTO_COUNT>
3

> <PUBCHEM_COORDINATE_TYPE>
1
5
255

> <PUBCHEM_BONDANNOTATIONS>
11  12  8
11  13  8
12  15  8
13  16  8
14  15  8
14  16  8
4  7  6

$$$$
9068714
  -OEChem-11301217062D

 30 32  0     0  0  0  0  0  0999 V2000
   10.7619   -0.6970    0.0000 Cl  0  0  0  0  0  0  0  0  0  0  0  0
    6.7619    1.0350    0.0000 O   0  0  0  0  0  0  0  0  0  0  0  0
    4.6783    0.9737    0.0000 N   0  0  0  0  0  0  0  0  0  0  0  0
    6.7619   -0.6970    0.0000 N   0  0  0  0  0  0  0  0  0  0  0  0
    3.7320    0.6690    0.0000 C   0  0  0  0  0  0  0  0  0  0  0  0
    3.7320   -0.3310    0.0000 C   0  0  0  0  0  0  0  0  0  0  0  0
    5.2619    0.1690    0.0000 C   0  0  0  0  0  0  0  0  0  0  0  0
    4.6783   -0.6357    0.0000 C   0  0  0  0  0  0  0  0  0  0  0  0
    2.8660    1.1690    0.0000 C   0  0  0  0  0  0  0  0  0  0  0  0
    2.8660   -0.8310    0.0000 C   0  0  0  0  0  0  0  0  0  0  0  0
    6.2619    0.1690    0.0000 C   0  0  0  0  0  0  0  0  0  0  0  0
    2.0000    0.6690    0.0000 C   0  0  0  0  0  0  0  0  0  0  0  0
    2.0000   -0.3310    0.0000 C   0  0  0  0  0  0  0  0  0  0  0  0
    7.7619   -0.6970    0.0000 C   0  0  0  0  0  0  0  0  0  0  0  0
    8.2619   -1.5630    0.0000 C   0  0  0  0  0  0  0  0  0  0  0  0
    8.2619    0.1690    0.0000 C   0  0  0  0  0  0  0  0  0  0  0  0
    9.2619   -1.5630    0.0000 C   0  0  0  0  0  0  0  0  0  0  0  0
    9.2619    0.1690    0.0000 C   0  0  0  0  0  0  0  0  0  0  0  0
    9.7619   -0.6970    0.0000 C   0  0  0  0  0  0  0  0  0  0  0  0
    4.8709    1.5630    0.0000 H   0  0  0  0  0  0  0  0  0  0  0  0
    4.8709   -1.2251    0.0000 H   0  0  0  0  0  0  0  0  0  0  0  0
    2.8660    1.7890    0.0000 H   0  0  0  0  0  0  0  0  0  0  0  0
    2.8660   -1.4510    0.0000 H   0  0  0  0  0  0  0  0  0  0  0  0
    6.4519   -1.2340    0.0000 H   0  0  0  0  0  0  0  0  0  0  0  0
    1.4631    0.9790    0.0000 H   0  0  0  0  0  0  0  0  0  0  0  0
    1.4631   -0.6410    0.0000 H   0  0  0  0  0  0  0  0  0  0  0  0
    7.9519   -2.1000    0.0000 H   0  0  0  0  0  0  0  0  0  0  0  0
    7.9519    0.7059    0.0000 H   0  0  0  0  0  0  0  0  0  0  0  0
    9.5719   -2.1000    0.0000 H   0  0  0  0  0  0  0  0  0  0  0  0
    9.5719    0.7059    0.0000 H   0  0  0  0  0  0  0  0  0  0  0  0
  1 19  1  0  0  0  0
  2 11  2  0  0  0  0
  3  5  1  0  0  0  0
  3  7  1  0  0  0  0
  3 20  1  0  0  0  0
  4 11  1  0  0  0  0
  4 14  1  0  0  0  0
  4 24  1  0  0  0  0
  5  6  1  0  0  0  0
  5  9  2  0  0  0  0
  6  8  1  0  0  0  0
  6 10  2  0  0  0  0
  7  8  2  0  0  0  0
  7 11  1  0  0  0  0
  8 21  1  0  0  0  0
  9 12  1  0  0  0  0
  9 22  1  0  0  0  0
 10 13  1  0  0  0  0
 10 23  1  0  0  0  0
 12 13  2  0  0  0  0
 12 25  1  0  0  0  0
 13 26  1  0  0  0  0
 14 15  2  0  0  0  0
 14 16  1  0  0  0  0
 15 17  1  0  0  0  0
 15 27  1  0  0  0  0
 16 18  2  0  0  0  0
 16 28  1  0  0  0  0
 17 19  2  0  0  0  0
 17 29  1  0  0  0  0
 18 19  1  0  0  0  0
 18 30  1  0  0  0  0
M  END
> <PUBCHEM_COMPOUND_CID>
9068714

> <PUBCHEM_COMPOUND_CANONICALIZED>
1

> <PUBCHEM_CACTVS_COMPLEXITY>
328

> <PUBCHEM_CACTVS_HBOND_ACCEPTOR>
1

> <PUBCHEM_CACTVS_HBOND_DONOR>
2

> <PUBCHEM_CACTVS_ROTATABLE_BOND>
2

> <PUBCHEM_CACTVS_SUBSKEYS>
AAADccBzIAAEAAAAAAAAAAAAAAAAAWAAAAAwYAAAAAAAAFgB9AAAHgIQAAAADAqBniAwwPLJkACoAyVyVACCgCAnByAImSGwZtgIYPLBl7GUIQhglADIyYcYiYCeAABAAAACAAAAAIAAAAQAAAAAAAAAAA==

> <PUBCHEM_IUPAC_OPENEYE_NAME>
N-(4-chlorophenyl)-1H-indole-2-carboxamide

> <PUBCHEM_IUPAC_CAS_NAME>
N-(4-chlorophenyl)-1H-indole-2-carboxamide

> <PUBCHEM_IUPAC_NAME>
N-(4-chlorophenyl)-1H-indole-2-carboxamide

> <PUBCHEM_IUPAC_SYSTEMATIC_NAME>
N-(4-chlorophenyl)-1H-indole-2-carboxamide

> <PUBCHEM_IUPAC_TRADITIONAL_NAME>
N-(4-chlorophenyl)-1H-indole-2-carboxamide

> <PUBCHEM_IUPAC_INCHI>
InChI=1S/C15H11ClN2O/c16-11-5-7-12(8-6-11)17-15(19)14-9-10-3-1-2-4-13(10)18-14/h1-9,18H,(H,17,19)

> <PUBCHEM_IUPAC_INCHIKEY>
HTIUDYISDLDRRW-UHFFFAOYSA-N

> <PUBCHEM_XLOGP3>
4.2

> <PUBCHEM_EXACT_MASS>
270.055991

> <PUBCHEM_MOLECULAR_FORMULA>
C15H11ClN2O

> <PUBCHEM_MOLECULAR_WEIGHT>
270.71364

> <PUBCHEM_OPENEYE_CAN_SMILES>
C1=CC=C2C(=C1)C=C(N2)C(=O)NC3=CC=C(C=C3)Cl

> <PUBCHEM_OPENEYE_ISO_SMILES>
C1=CC=C2C(=C1)C=C(N2)C(=O)NC3=CC=C(C=C3)Cl

> <PUBCHEM_CACTVS_TPSA>
44.9

> <PUBCHEM_MONOISOTOPIC_WEIGHT>
270.055991

> <PUBCHEM_TOTAL_CHARGE>
0

> <PUBCHEM_HEAVY_ATOM_COUNT>
19

> <PUBCHEM_ATOM_DEF_STEREO_COUNT>
0

> <PUBCHEM_ATOM_UDEF_STEREO_COUNT>
0

> <PUBCHEM_BOND_DEF_STEREO_COUNT>
0

> <PUBCHEM_BOND_UDEF_STEREO_COUNT>
0

> <PUBCHEM_ISOTOPIC_ATOM_COUNT>
0

> <PUBCHEM_COMPONENT_COUNT>
1

> <PUBCHEM_CACTVS_TAUTO_COUNT>
11

> <PUBCHEM_COORDINATE_TYPE>
1
5
255

> <PUBCHEM_BONDANNOTATIONS>
10  13  8
12  13  8
14  15  8
14  16  8
15  17  8
16  18  8
17  19  8
18  19  8
3  5  8
3  7  8
5  6  8
5  9  8
6  10  8
6  8  8
7  8  8
9  12  8

$$$$
