29816940
  -OEChem-11301217422D

 46 49  0     1  0  0  0  0  0999 V2000
    8.4993    4.1572    0.0000 Cl  0  0  0  0  0  0  0  0  0  0  0  0
    6.6353   -1.5460    0.0000 O   0  0  0  0  0  0  0  0  0  0  0  0
    6.2781    0.1489    0.0000 N   0  0  0  0  0  0  0  0  0  0  0  0
    4.6783   -3.5679    0.0000 N   0  0  0  0  0  0  0  0  0  0  0  0
    7.2566    0.3551    0.0000 C   0  0  2  0  0  0  0  0  0  0  0  0
    4.6783   -1.9584    0.0000 C   0  0  0  0  0  0  0  0  0  0  0  0
    4.9889   -1.0079    0.0000 C   0  0  0  0  0  0  0  0  0  0  0  0
    3.7321   -2.2631    0.0000 C   0  0  0  0  0  0  0  0  0  0  0  0
    7.5673    1.3056    0.0000 C   0  0  0  0  0  0  0  0  0  0  0  0
    7.9245   -0.3892    0.0000 C   0  0  0  0  0  0  0  0  0  0  0  0
    3.7321   -3.2631    0.0000 C   0  0  0  0  0  0  0  0  0  0  0  0
    5.9674   -0.8016    0.0000 C   0  0  0  0  0  0  0  0  0  0  0  0
    5.2619   -2.7631    0.0000 C   0  0  0  0  0  0  0  0  0  0  0  0
    2.8660   -1.7631    0.0000 C   0  0  0  0  0  0  0  0  0  0  0  0
    6.8994    2.0499    0.0000 C   0  0  0  0  0  0  0  0  0  0  0  0
    8.5458    1.5118    0.0000 C   0  0  0  0  0  0  0  0  0  0  0  0
    8.9030   -0.1830    0.0000 C   0  0  0  0  0  0  0  0  0  0  0  0
    7.6138   -1.3397    0.0000 C   0  0  0  0  0  0  0  0  0  0  0  0
    2.8660   -3.7631    0.0000 C   0  0  0  0  0  0  0  0  0  0  0  0
    2.0000   -2.2631    0.0000 C   0  0  0  0  0  0  0  0  0  0  0  0
    2.0000   -3.2631    0.0000 C   0  0  0  0  0  0  0  0  0  0  0  0
    7.2101    3.0004    0.0000 C   0  0  0  0  0  0  0  0  0  0  0  0
    8.8564    2.4623    0.0000 C   0  0  0  0  0  0  0  0  0  0  0  0
    9.5708   -0.9273    0.0000 C   0  0  0  0  0  0  0  0  0  0  0  0
    8.2816   -2.0840    0.0000 C   0  0  0  0  0  0  0  0  0  0  0  0
    8.1886    3.2066    0.0000 C   0  0  0  0  0  0  0  0  0  0  0  0
    9.2601   -1.8778    0.0000 C   0  0  0  0  0  0  0  0  0  0  0  0
    7.0640   -0.2342    0.0000 H   0  0  0  0  0  0  0  0  0  0  0  0
    4.9684   -0.3882    0.0000 H   0  0  0  0  0  0  0  0  0  0  0  0
    4.3751   -0.9205    0.0000 H   0  0  0  0  0  0  0  0  0  0  0  0
    5.8640    0.6103    0.0000 H   0  0  0  0  0  0  0  0  0  0  0  0
    5.8819   -2.7631    0.0000 H   0  0  0  0  0  0  0  0  0  0  0  0
    4.8709   -4.1572    0.0000 H   0  0  0  0  0  0  0  0  0  0  0  0
    2.8660   -1.1431    0.0000 H   0  0  0  0  0  0  0  0  0  0  0  0
    6.2928    1.9221    0.0000 H   0  0  0  0  0  0  0  0  0  0  0  0
    8.9598    1.0504    0.0000 H   0  0  0  0  0  0  0  0  0  0  0  0
    9.0956    0.4063    0.0000 H   0  0  0  0  0  0  0  0  0  0  0  0
    7.0071   -1.4676    0.0000 H   0  0  0  0  0  0  0  0  0  0  0  0
    2.8660   -4.3831    0.0000 H   0  0  0  0  0  0  0  0  0  0  0  0
    1.4631   -1.9531    0.0000 H   0  0  0  0  0  0  0  0  0  0  0  0
    1.4631   -3.5731    0.0000 H   0  0  0  0  0  0  0  0  0  0  0  0
    6.7960    3.4619    0.0000 H   0  0  0  0  0  0  0  0  0  0  0  0
    9.4631    2.5902    0.0000 H   0  0  0  0  0  0  0  0  0  0  0  0
   10.1775   -0.7994    0.0000 H   0  0  0  0  0  0  0  0  0  0  0  0
    8.0890   -2.6734    0.0000 H   0  0  0  0  0  0  0  0  0  0  0  0
    9.6742   -2.3393    0.0000 H   0  0  0  0  0  0  0  0  0  0  0  0
  1 26  1  0  0  0  0
  2 12  2  0  0  0  0
  5  3  1  6  0  0  0
  3 12  1  0  0  0  0
  3 31  1  0  0  0  0
  4 11  1  0  0  0  0
  4 13  1  0  0  0  0
  4 33  1  0  0  0  0
  5  9  1  0  0  0  0
  5 10  1  0  0  0  0
  5 28  1  0  0  0  0
  6  7  1  0  0  0  0
  6  8  1  0  0  0  0
  6 13  2  0  0  0  0
  7 12  1  0  0  0  0
  7 29  1  0  0  0  0
  7 30  1  0  0  0  0
  8 11  1  0  0  0  0
  8 14  2  0  0  0  0
  9 15  2  0  0  0  0
  9 16  1  0  0  0  0
 10 17  2  0  0  0  0
 10 18  1  0  0  0  0
 11 19  2  0  0  0  0
 13 32  1  0  0  0  0
 14 20  1  0  0  0  0
 14 34  1  0  0  0  0
 15 22  1  0  0  0  0
 15 35  1  0  0  0  0
 16 23  2  0  0  0  0
 16 36  1  0  0  0  0
 17 24  1  0  0  0  0
 17 37  1  0  0  0  0
 18 25  2  0  0  0  0
 18 38  1  0  0  0  0
 19 21  1  0  0  0  0
 19 39  1  0  0  0  0
 20 21  2  0  0  0  0
 20 40  1  0  0  0  0
 21 41  1  0  0  0  0
 22 26  2  0  0  0  0
 22 42  1  0  0  0  0
 23 26  1  0  0  0  0
 23 43  1  0  0  0  0
 24 27  2  0  0  0  0
 24 44  1  0  0  0  0
 25 27  1  0  0  0  0
 25 45  1  0  0  0  0
 27 46  1  0  0  0  0
M  END
> <PUBCHEM_COMPOUND_CID>
29816940

> <PUBCHEM_COMPOUND_CANONICALIZED>
1

> <PUBCHEM_CACTVS_COMPLEXITY>
485

> <PUBCHEM_CACTVS_HBOND_ACCEPTOR>
1

> <PUBCHEM_CACTVS_HBOND_DONOR>
2

> <PUBCHEM_CACTVS_ROTATABLE_BOND>
5

> <PUBCHEM_CACTVS_SUBSKEYS>
AAADceB7IAAEAAAAAAAAAAAAAAAAAWAAAAAwYMAAAAAAAFgB9AAAHgIQAAAADCrBniQ8wPLJkACoAzV3VACCgCAxByAI2aE4ZpgIIPLBl5GEIAhglgDIyAccicCehAAAAAACAAAIAAAAAAQAAAAAAAAAAA==

> <PUBCHEM_IUPAC_OPENEYE_NAME>
N-[(S)-(4-chlorophenyl)-phenyl-methyl]-2-(1H-indol-3-yl)acetamide

> <PUBCHEM_IUPAC_CAS_NAME>
N-[(S)-(4-chlorophenyl)-phenylmethyl]-2-(1H-indol-3-yl)acetamide

> <PUBCHEM_IUPAC_NAME>
N-[(S)-(4-chlorophenyl)-phenylmethyl]-2-(1H-indol-3-yl)acetamide

> <PUBCHEM_IUPAC_SYSTEMATIC_NAME>
N-[(S)-(4-chlorophenyl)-phenyl-methyl]-2-(1H-indol-3-yl)ethanamide

> <PUBCHEM_IUPAC_TRADITIONAL_NAME>
N-[(S)-(4-chlorophenyl)-phenyl-methyl]-2-(1H-indol-3-yl)acetamide

> <PUBCHEM_IUPAC_INCHI>
InChI=1S/C23H19ClN2O/c24-19-12-10-17(11-13-19)23(16-6-2-1-3-7-16)26-22(27)14-18-15-25-21-9-5-4-8-20(18)21/h1-13,15,23,25H,14H2,(H,26,27)/t23-/m0/s1

> <PUBCHEM_IUPAC_INCHIKEY>
IGNOJICLKGPZPC-QHCPKHFHSA-N

> <PUBCHEM_XLOGP3>
5

> <PUBCHEM_EXACT_MASS>
374.118591

> <PUBCHEM_MOLECULAR_FORMULA>
C23H19ClN2O

> <PUBCHEM_MOLECULAR_WEIGHT>
374.86276

> <PUBCHEM_OPENEYE_CAN_SMILES>
C1=CC=C(C=C1)C(C2=CC=C(C=C2)Cl)NC(=O)CC3=CNC4=CC=CC=C43

> <PUBCHEM_OPENEYE_ISO_SMILES>
C1=CC=C(C=C1)[C@@H](C2=CC=C(C=C2)Cl)NC(=O)CC3=CNC4=CC=CC=C43

> <PUBCHEM_CACTVS_TPSA>
44.9

> <PUBCHEM_MONOISOTOPIC_WEIGHT>
374.118591

> <PUBCHEM_TOTAL_CHARGE>
0

> <PUBCHEM_HEAVY_ATOM_COUNT>
27

> <PUBCHEM_ATOM_DEF_STEREO_COUNT>
1

> <PUBCHEM_ATOM_UDEF_STEREO_COUNT>
0

> <PUBCHEM_BOND_DEF_STEREO_COUNT>
0

> <PUBCHEM_BOND_UDEF_STEREO_COUNT>
0

> <PUBCHEM_ISOTOPIC_ATOM_COUNT>
0

> <PUBCHEM_COMPONENT_COUNT>
1

> <PUBCHEM_CACTVS_TAUTO_COUNT>
2

> <PUBCHEM_COORDINATE_TYPE>
1
5
255

> <PUBCHEM_BONDANNOTATIONS>
10  17  8
10  18  8
11  19  8
14  20  8
15  22  8
16  23  8
17  24  8
18  25  8
19  21  8
20  21  8
22  26  8
23  26  8
24  27  8
25  27  8
5  3  6
4  11  8
4  13  8
6  13  8
6  8  8
8  11  8
8  14  8
9  15  8
9  16  8

$$$$
29816942
  -OEChem-11301217422D

 46 49  0     1  0  0  0  0  0999 V2000
    8.4993    4.1572    0.0000 Cl  0  0  0  0  0  0  0  0  0  0  0  0
    6.6353   -1.5460    0.0000 O   0  0  0  0  0  0  0  0  0  0  0  0
    6.2781    0.1489    0.0000 N   0  0  0  0  0  0  0  0  0  0  0  0
    4.6783   -3.5679    0.0000 N   0  0  0  0  0  0  0  0  0  0  0  0
    7.2566    0.3551    0.0000 C   0  0  1  0  0  0  0  0  0  0  0  0
    4.6783   -1.9584    0.0000 C   0  0  0  0  0  0  0  0  0  0  0  0
    4.9889   -1.0079    0.0000 C   0  0  0  0  0  0  0  0  0  0  0  0
    3.7321   -2.2631    0.0000 C   0  0  0  0  0  0  0  0  0  0  0  0
    7.5673    1.3056    0.0000 C   0  0  0  0  0  0  0  0  0  0  0  0
    7.9245   -0.3892    0.0000 C   0  0  0  0  0  0  0  0  0  0  0  0
    3.7321   -3.2631    0.0000 C   0  0  0  0  0  0  0  0  0  0  0  0
    5.9674   -0.8016    0.0000 C   0  0  0  0  0  0  0  0  0  0  0  0
    5.2619   -2.7631    0.0000 C   0  0  0  0  0  0  0  0  0  0  0  0
    2.8660   -1.7631    0.0000 C   0  0  0  0  0  0  0  0  0  0  0  0
    6.8994    2.0499    0.0000 C   0  0  0  0  0  0  0  0  0  0  0  0
    8.5458    1.5118    0.0000 C   0  0  0  0  0  0  0  0  0  0  0  0
    8.9030   -0.1830    0.0000 C   0  0  0  0  0  0  0  0  0  0  0  0
    7.6138   -1.3397    0.0000 C   0  0  0  0  0  0  0  0  0  0  0  0
    2.8660   -3.7631    0.0000 C   0  0  0  0  0  0  0  0  0  0  0  0
    2.0000   -2.2631    0.0000 C   0  0  0  0  0  0  0  0  0  0  0  0
    2.0000   -3.2631    0.0000 C   0  0  0  0  0  0  0  0  0  0  0  0
    7.2101    3.0004    0.0000 C   0  0  0  0  0  0  0  0  0  0  0  0
    8.8564    2.4623    0.0000 C   0  0  0  0  0  0  0  0  0  0  0  0
    9.5708   -0.9273    0.0000 C   0  0  0  0  0  0  0  0  0  0  0  0
    8.2816   -2.0840    0.0000 C   0  0  0  0  0  0  0  0  0  0  0  0
    8.1886    3.2066    0.0000 C   0  0  0  0  0  0  0  0  0  0  0  0
    9.2601   -1.8778    0.0000 C   0  0  0  0  0  0  0  0  0  0  0  0
    7.0640   -0.2342    0.0000 H   0  0  0  0  0  0  0  0  0  0  0  0
    4.9684   -0.3882    0.0000 H   0  0  0  0  0  0  0  0  0  0  0  0
    4.3751   -0.9205    0.0000 H   0  0  0  0  0  0  0  0  0  0  0  0
    5.8640    0.6103    0.0000 H   0  0  0  0  0  0  0  0  0  0  0  0
    5.8819   -2.7631    0.0000 H   0  0  0  0  0  0  0  0  0  0  0  0
    4.8709   -4.1572    0.0000 H   0  0  0  0  0  0  0  0  0  0  0  0
    2.8660   -1.1431    0.0000 H   0  0  0  0  0  0  0  0  0  0  0  0
    6.2928    1.9221    0.0000 H   0  0  0  0  0  0  0  0  0  0  0  0
    8.9598    1.0504    0.0000 H   0  0  0  0  0  0  0  0  0  0  0  0
    9.0956    0.4063    0.0000 H   0  0  0  0  0  0  0  0  0  0  0  0
    7.0071   -1.4676    0.0000 H   0  0  0  0  0  0  0  0  0  0  0  0
    2.8660   -4.3831    0.0000 H   0  0  0  0  0  0  0  0  0  0  0  0
    1.4631   -1.9531    0.0000 H   0  0  0  0  0  0  0  0  0  0  0  0
    1.4631   -3.5731    0.0000 H   0  0  0  0  0  0  0  0  0  0  0  0
    6.7960    3.4619    0.0000 H   0  0  0  0  0  0  0  0  0  0  0  0
    9.4631    2.5902    0.0000 H   0  0  0  0  0  0  0  0  0  0  0  0
   10.1775   -0.7994    0.0000 H   0  0  0  0  0  0  0  0  0  0  0  0
    8.0890   -2.6734    0.0000 H   0  0  0  0  0  0  0  0  0  0  0  0
    9.6742   -2.3393    0.0000 H   0  0  0  0  0  0  0  0  0  0  0  0
  1 26  1  0  0  0  0
  2 12  2  0  0  0  0
  5  3  1  1  0  0  0
  3 12  1  0  0  0  0
  3 31  1  0  0  0  0
  4 11  1  0  0  0  0
  4 13  1  0  0  0  0
  4 33  1  0  0  0  0
  5  9  1  0  0  0  0
  5 10  1  0  0  0  0
  5 28  1  0  0  0  0
  6  7  1  0  0  0  0
  6  8  1  0  0  0  0
  6 13  2  0  0  0  0
  7 12  1  0  0  0  0
  7 29  1  0  0  0  0
  7 30  1  0  0  0  0
  8 11  1  0  0  0  0
  8 14  2  0  0  0  0
  9 15  2  0  0  0  0
  9 16  1  0  0  0  0
 10 17  2  0  0  0  0
 10 18  1  0  0  0  0
 11 19  2  0  0  0  0
 13 32  1  0  0  0  0
 14 20  1  0  0  0  0
 14 34  1  0  0  0  0
 15 22  1  0  0  0  0
 15 35  1  0  0  0  0
 16 23  2  0  0  0  0
 16 36  1  0  0  0  0
 17 24  1  0  0  0  0
 17 37  1  0  0  0  0
 18 25  2  0  0  0  0
 18 38  1  0  0  0  0
 19 21  1  0  0  0  0
 19 39  1  0  0  0  0
 20 21  2  0  0  0  0
 20 40  1  0  0  0  0
 21 41  1  0  0  0  0
 22 26  2  0  0  0  0
 22 42  1  0  0  0  0
 23 26  1  0  0  0  0
 23 43  1  0  0  0  0
 24 27  2  0  0  0  0
 24 44  1  0  0  0  0
 25 27  1  0  0  0  0
 25 45  1  0  0  0  0
 27 46  1  0  0  0  0
M  END
> <PUBCHEM_COMPOUND_CID>
29816942

> <PUBCHEM_COMPOUND_CANONICALIZED>
1

> <PUBCHEM_CACTVS_COMPLEXITY>
485

> <PUBCHEM_CACTVS_HBOND_ACCEPTOR>
1

> <PUBCHEM_CACTVS_HBOND_DONOR>
2

> <PUBCHEM_CACTVS_ROTATABLE_BOND>
5

> <PUBCHEM_CACTVS_SUBSKEYS>
AAADceB7IAAEAAAAAAAAAAAAAAAAAWAAAAAwYMAAAAAAAFgB9AAAHgIQAAAADCrBniQ8wPLJkACoAzV3VACCgCAxByAI2aE4ZpgIIPLBl5GEIAhglgDIyAccicCehAAAAAACAAAIAAAAAAQAAAAAAAAAAA==

> <PUBCHEM_IUPAC_OPENEYE_NAME>
N-[(R)-(4-chlorophenyl)-phenyl-methyl]-2-(1H-indol-3-yl)acetamide

> <PUBCHEM_IUPAC_CAS_NAME>
N-[(R)-(4-chlorophenyl)-phenylmethyl]-2-(1H-indol-3-yl)acetamide

> <PUBCHEM_IUPAC_NAME>
N-[(R)-(4-chlorophenyl)-phenylmethyl]-2-(1H-indol-3-yl)acetamide

> <PUBCHEM_IUPAC_SYSTEMATIC_NAME>
N-[(R)-(4-chlorophenyl)-phenyl-methyl]-2-(1H-indol-3-yl)ethanamide

> <PUBCHEM_IUPAC_TRADITIONAL_NAME>
N-[(R)-(4-chlorophenyl)-phenyl-methyl]-2-(1H-indol-3-yl)acetamide

> <PUBCHEM_IUPAC_INCHI>
InChI=1S/C23H19ClN2O/c24-19-12-10-17(11-13-19)23(16-6-2-1-3-7-16)26-22(27)14-18-15-25-21-9-5-4-8-20(18)21/h1-13,15,23,25H,14H2,(H,26,27)/t23-/m1/s1

> <PUBCHEM_IUPAC_INCHIKEY>
IGNOJICLKGPZPC-HSZRJFAPSA-N

> <PUBCHEM_XLOGP3>
5

> <PUBCHEM_EXACT_MASS>
374.118591

> <PUBCHEM_MOLECULAR_FORMULA>
C23H19ClN2O

> <PUBCHEM_MOLECULAR_WEIGHT>
374.86276

> <PUBCHEM_OPENEYE_CAN_SMILES>
C1=CC=C(C=C1)C(C2=CC=C(C=C2)Cl)NC(=O)CC3=CNC4=CC=CC=C43

> <PUBCHEM_OPENEYE_ISO_SMILES>
C1=CC=C(C=C1)[C@H](C2=CC=C(C=C2)Cl)NC(=O)CC3=CNC4=CC=CC=C43

> <PUBCHEM_CACTVS_TPSA>
44.9

> <PUBCHEM_MONOISOTOPIC_WEIGHT>
374.118591

> <PUBCHEM_TOTAL_CHARGE>
0

> <PUBCHEM_HEAVY_ATOM_COUNT>
27

> <PUBCHEM_ATOM_DEF_STEREO_COUNT>
1

> <PUBCHEM_ATOM_UDEF_STEREO_COUNT>
0

> <PUBCHEM_BOND_DEF_STEREO_COUNT>
0

> <PUBCHEM_BOND_UDEF_STEREO_COUNT>
0

> <PUBCHEM_ISOTOPIC_ATOM_COUNT>
0

> <PUBCHEM_COMPONENT_COUNT>
1

> <PUBCHEM_CACTVS_TAUTO_COUNT>
2

> <PUBCHEM_COORDINATE_TYPE>
1
5
255

> <PUBCHEM_BONDANNOTATIONS>
10  17  8
10  18  8
11  19  8
14  20  8
15  22  8
16  23  8
17  24  8
18  25  8
19  21  8
20  21  8
22  26  8
23  26  8
24  27  8
25  27  8
5  3  5
4  11  8
4  13  8
6  13  8
6  8  8
8  11  8
8  14  8
9  15  8
9  16  8

$$$$
