46628969
  -OEChem-11301217572D

 37 38  0     1  0  0  0  0  0999 V2000
    5.4641   -1.5173    0.0000 O   0  0  0  0  0  0  0  0  0  0  0  0
    4.5981   -0.0173    0.0000 N   0  0  0  0  0  0  0  0  0  0  0  0
    3.7320   -0.5173    0.0000 C   0  0  3  0  0  0  0  0  0  0  0  0
    2.8660   -0.0173    0.0000 C   0  0  0  0  0  0  0  0  0  0  0  0
    3.7320   -1.5173    0.0000 C   0  0  0  0  0  0  0  0  0  0  0  0
    2.0000   -0.5173    0.0000 C   0  0  0  0  0  0  0  0  0  0  0  0
    2.8660    0.9827    0.0000 C   0  0  0  0  0  0  0  0  0  0  0  0
    5.4641   -0.5173    0.0000 C   0  0  0  0  0  0  0  0  0  0  0  0
    6.3301   -0.0173    0.0000 C   0  0  0  0  0  0  0  0  0  0  0  0
    8.0622   -0.0173    0.0000 C   0  0  0  0  0  0  0  0  0  0  0  0
    7.1962   -0.5173    0.0000 C   0  0  0  0  0  0  0  0  0  0  0  0
    8.0622    0.9827    0.0000 C   0  0  0  0  0  0  0  0  0  0  0  0
    6.3301    0.9827    0.0000 C   0  0  0  0  0  0  0  0  0  0  0  0
    7.1962    1.4827    0.0000 C   0  0  0  0  0  0  0  0  0  0  0  0
    8.9561   -0.5520    0.0000 C   0  0  0  0  0  0  0  0  0  0  0  0
    8.9561    1.5173    0.0000 C   0  0  0  0  0  0  0  0  0  0  0  0
    9.8622   -0.0381    0.0000 C   0  0  0  0  0  0  0  0  0  0  0  0
    9.8622    1.0035    0.0000 C   0  0  0  0  0  0  0  0  0  0  0  0
    3.7320    0.1027    0.0000 H   0  0  0  0  0  0  0  0  0  0  0  0
    2.8660   -0.6373    0.0000 H   0  0  0  0  0  0  0  0  0  0  0  0
    4.5981    0.6027    0.0000 H   0  0  0  0  0  0  0  0  0  0  0  0
    3.1120   -1.5173    0.0000 H   0  0  0  0  0  0  0  0  0  0  0  0
    3.7320   -2.1373    0.0000 H   0  0  0  0  0  0  0  0  0  0  0  0
    4.3520   -1.5173    0.0000 H   0  0  0  0  0  0  0  0  0  0  0  0
    1.6900    0.0196    0.0000 H   0  0  0  0  0  0  0  0  0  0  0  0
    3.4860    0.9827    0.0000 H   0  0  0  0  0  0  0  0  0  0  0  0
    2.8660    1.6027    0.0000 H   0  0  0  0  0  0  0  0  0  0  0  0
    2.2460    0.9827    0.0000 H   0  0  0  0  0  0  0  0  0  0  0  0
    1.4631   -0.8273    0.0000 H   0  0  0  0  0  0  0  0  0  0  0  0
    2.3100   -1.0543    0.0000 H   0  0  0  0  0  0  0  0  0  0  0  0
    7.1962   -1.1373    0.0000 H   0  0  0  0  0  0  0  0  0  0  0  0
    5.7932    1.2927    0.0000 H   0  0  0  0  0  0  0  0  0  0  0  0
    7.1962    2.1027    0.0000 H   0  0  0  0  0  0  0  0  0  0  0  0
    8.9490   -1.1720    0.0000 H   0  0  0  0  0  0  0  0  0  0  0  0
    8.9490    2.1373    0.0000 H   0  0  0  0  0  0  0  0  0  0  0  0
   10.3979   -0.3502    0.0000 H   0  0  0  0  0  0  0  0  0  0  0  0
   10.3979    1.3156    0.0000 H   0  0  0  0  0  0  0  0  0  0  0  0
  1  8  2  0  0  0  0
  2  3  1  0  0  0  0
  2  8  1  0  0  0  0
  2 21  1  0  0  0  0
  3  4  1  0  0  0  0
  3  5  1  0  0  0  0
  3 19  1  0  0  0  0
  4  6  1  0  0  0  0
  4  7  1  0  0  0  0
  4 20  1  0  0  0  0
  5 22  1  0  0  0  0
  5 23  1  0  0  0  0
  5 24  1  0  0  0  0
  6 25  1  0  0  0  0
  6 29  1  0  0  0  0
  6 30  1  0  0  0  0
  7 26  1  0  0  0  0
  7 27  1  0  0  0  0
  7 28  1  0  0  0  0
  8  9  1  0  0  0  0
  9 11  2  0  0  0  0
  9 13  1  0  0  0  0
 10 11  1  0  0  0  0
 10 12  1  0  0  0  0
 10 15  2  0  0  0  0
 11 31  1  0  0  0  0
 12 14  1  0  0  0  0
 12 16  2  0  0  0  0
 13 14  2  0  0  0  0
 13 32  1  0  0  0  0
 14 33  1  0  0  0  0
 15 17  1  0  0  0  0
 15 34  1  0  0  0  0
 16 18  1  0  0  0  0
 16 35  1  0  0  0  0
 17 18  2  0  0  0  0
 17 36  1  0  0  0  0
 18 37  1  0  0  0  0
M  END
> <PUBCHEM_COMPOUND_CID>
46628969

> <PUBCHEM_COMPOUND_CANONICALIZED>
1

> <PUBCHEM_CACTVS_COMPLEXITY>
287

> <PUBCHEM_CACTVS_HBOND_ACCEPTOR>
1

> <PUBCHEM_CACTVS_HBOND_DONOR>
1

> <PUBCHEM_CACTVS_ROTATABLE_BOND>
3

> <PUBCHEM_CACTVS_SUBSKEYS>
AAADceB6IAAAAAAAAAAAAAAAAAAAAAAAAAAwYAAAAAAAAADBUAAAHgAQAAAADSjBmAQyAMLAAACIAiFSEACCAAAkAAAIiIEIBMgIIDKAlRGEIQhglgCIiYcYiMCOwAACAAAQAACAAAQAACAAAAAAAAAAAA==

> <PUBCHEM_IUPAC_OPENEYE_NAME>
N-(1,2-dimethylpropyl)naphthalene-2-carboxamide

> <PUBCHEM_IUPAC_CAS_NAME>
N-(3-methylbutan-2-yl)-2-naphthalenecarboxamide

> <PUBCHEM_IUPAC_NAME>
N-(3-methylbutan-2-yl)naphthalene-2-carboxamide

> <PUBCHEM_IUPAC_SYSTEMATIC_NAME>
N-(3-methylbutan-2-yl)naphthalene-2-carboxamide

> <PUBCHEM_IUPAC_TRADITIONAL_NAME>
N-(1,2-dimethylpropyl)-2-naphthamide

> <PUBCHEM_IUPAC_INCHI>
InChI=1S/C16H19NO/c1-11(2)12(3)17-16(18)15-9-8-13-6-4-5-7-14(13)10-15/h4-12H,1-3H3,(H,17,18)

> <PUBCHEM_IUPAC_INCHIKEY>
ZIYZRDUSUOLYBN-UHFFFAOYSA-N

> <PUBCHEM_XLOGP3>
4.8

> <PUBCHEM_EXACT_MASS>
241.146664

> <PUBCHEM_MOLECULAR_FORMULA>
C16H19NO

> <PUBCHEM_MOLECULAR_WEIGHT>
241.32816

> <PUBCHEM_OPENEYE_CAN_SMILES>
CC(C)C(C)NC(=O)C1=CC2=CC=CC=C2C=C1

> <PUBCHEM_OPENEYE_ISO_SMILES>
CC(C)C(C)NC(=O)C1=CC2=CC=CC=C2C=C1

> <PUBCHEM_CACTVS_TPSA>
29.1

> <PUBCHEM_MONOISOTOPIC_WEIGHT>
241.146664

> <PUBCHEM_TOTAL_CHARGE>
0

> <PUBCHEM_HEAVY_ATOM_COUNT>
18

> <PUBCHEM_ATOM_DEF_STEREO_COUNT>
0

> <PUBCHEM_ATOM_UDEF_STEREO_COUNT>
1

> <PUBCHEM_BOND_DEF_STEREO_COUNT>
0

> <PUBCHEM_BOND_UDEF_STEREO_COUNT>
0

> <PUBCHEM_ISOTOPIC_ATOM_COUNT>
0

> <PUBCHEM_COMPONENT_COUNT>
1

> <PUBCHEM_CACTVS_TAUTO_COUNT>
2

> <PUBCHEM_COORDINATE_TYPE>
1
5
255

> <PUBCHEM_BONDANNOTATIONS>
10  11  8
10  12  8
10  15  8
12  14  8
12  16  8
13  14  8
15  17  8
16  18  8
17  18  8
3  5  3
9  11  8
9  13  8

$$$$
46635516
  -OEChem-11301217582D

 51 53  0     1  0  0  0  0  0999 V2000
    7.9244   -0.3892    0.0000 O   0  0  0  0  0  0  0  0  0  0  0  0
    7.5673    1.3056    0.0000 N   0  0  0  0  0  0  0  0  0  0  0  0
    4.6783   -3.5678    0.0000 N   0  0  0  0  0  0  0  0  0  0  0  0
    8.8564    2.4623    0.0000 C   0  0  3  0  0  0  0  0  0  0  0  0
    8.5458    1.5118    0.0000 C   0  0  0  0  0  0  0  0  0  0  0  0
    8.1886    3.2066    0.0000 C   0  0  0  0  0  0  0  0  0  0  0  0
    4.9889   -1.0079    0.0000 C   0  0  0  0  0  0  0  0  0  0  0  0
    5.9674   -0.8016    0.0000 C   0  0  0  0  0  0  0  0  0  0  0  0
    9.8349    2.6686    0.0000 C   0  0  0  0  0  0  0  0  0  0  0  0
    4.6783   -1.9584    0.0000 C   0  0  0  0  0  0  0  0  0  0  0  0
    6.2781    0.1489    0.0000 C   0  0  0  0  0  0  0  0  0  0  0  0
    3.7320   -2.2631    0.0000 C   0  0  0  0  0  0  0  0  0  0  0  0
    7.2566    0.3551    0.0000 C   0  0  0  0  0  0  0  0  0  0  0  0
    3.7320   -3.2631    0.0000 C   0  0  0  0  0  0  0  0  0  0  0  0
    8.4993    4.1572    0.0000 C   0  0  0  0  0  0  0  0  0  0  0  0
    5.2619   -2.7631    0.0000 C   0  0  0  0  0  0  0  0  0  0  0  0
   10.5028    1.9243    0.0000 C   0  0  0  0  0  0  0  0  0  0  0  0
   10.1456    3.6191    0.0000 C   0  0  0  0  0  0  0  0  0  0  0  0
    2.8660   -1.7631    0.0000 C   0  0  0  0  0  0  0  0  0  0  0  0
    2.8660   -3.7631    0.0000 C   0  0  0  0  0  0  0  0  0  0  0  0
   11.4813    2.1305    0.0000 C   0  0  0  0  0  0  0  0  0  0  0  0
   11.1241    3.8253    0.0000 C   0  0  0  0  0  0  0  0  0  0  0  0
    2.0000   -2.2631    0.0000 C   0  0  0  0  0  0  0  0  0  0  0  0
    2.0000   -3.2631    0.0000 C   0  0  0  0  0  0  0  0  0  0  0  0
   11.7920    3.0810    0.0000 C   0  0  0  0  0  0  0  0  0  0  0  0
    9.0490    3.0517    0.0000 H   0  0  0  0  0  0  0  0  0  0  0  0
    8.5663    0.8922    0.0000 H   0  0  0  0  0  0  0  0  0  0  0  0
    9.1596    1.4245    0.0000 H   0  0  0  0  0  0  0  0  0  0  0  0
    7.6417    3.4987    0.0000 H   0  0  0  0  0  0  0  0  0  0  0  0
    7.8060    2.7188    0.0000 H   0  0  0  0  0  0  0  0  0  0  0  0
    4.9684   -0.3882    0.0000 H   0  0  0  0  0  0  0  0  0  0  0  0
    4.3751   -0.9205    0.0000 H   0  0  0  0  0  0  0  0  0  0  0  0
    5.9880   -1.4213    0.0000 H   0  0  0  0  0  0  0  0  0  0  0  0
    6.5812   -0.8890    0.0000 H   0  0  0  0  0  0  0  0  0  0  0  0
    6.2575    0.7685    0.0000 H   0  0  0  0  0  0  0  0  0  0  0  0
    5.6643    0.2362    0.0000 H   0  0  0  0  0  0  0  0  0  0  0  0
    7.1532    1.7671    0.0000 H   0  0  0  0  0  0  0  0  0  0  0  0
    9.0886    3.9646    0.0000 H   0  0  0  0  0  0  0  0  0  0  0  0
    8.6919    4.7465    0.0000 H   0  0  0  0  0  0  0  0  0  0  0  0
    7.9099    4.3498    0.0000 H   0  0  0  0  0  0  0  0  0  0  0  0
    5.8819   -2.7631    0.0000 H   0  0  0  0  0  0  0  0  0  0  0  0
   10.3102    1.3350    0.0000 H   0  0  0  0  0  0  0  0  0  0  0  0
    9.7315    4.0806    0.0000 H   0  0  0  0  0  0  0  0  0  0  0  0
    4.8709   -4.1572    0.0000 H   0  0  0  0  0  0  0  0  0  0  0  0
    2.8660   -1.1431    0.0000 H   0  0  0  0  0  0  0  0  0  0  0  0
    2.8660   -4.3831    0.0000 H   0  0  0  0  0  0  0  0  0  0  0  0
   11.8954    1.6690    0.0000 H   0  0  0  0  0  0  0  0  0  0  0  0
   11.3167    4.4146    0.0000 H   0  0  0  0  0  0  0  0  0  0  0  0
    1.4631   -1.9531    0.0000 H   0  0  0  0  0  0  0  0  0  0  0  0
    1.4631   -3.5731    0.0000 H   0  0  0  0  0  0  0  0  0  0  0  0
   12.3986    3.2089    0.0000 H   0  0  0  0  0  0  0  0  0  0  0  0
  1 13  2  0  0  0  0
  2  5  1  0  0  0  0
  2 13  1  0  0  0  0
  2 37  1  0  0  0  0
  3 14  1  0  0  0  0
  3 16  1  0  0  0  0
  3 44  1  0  0  0  0
  4  5  1  0  0  0  0
  4  6  1  0  0  0  0
  4  9  1  0  0  0  0
  4 26  1  0  0  0  0
  5 27  1  0  0  0  0
  5 28  1  0  0  0  0
  6 15  1  0  0  0  0
  6 29  1  0  0  0  0
  6 30  1  0  0  0  0
  7  8  1  0  0  0  0
  7 10  1  0  0  0  0
  7 31  1  0  0  0  0
  7 32  1  0  0  0  0
  8 11  1  0  0  0  0
  8 33  1  0  0  0  0
  8 34  1  0  0  0  0
  9 17  2  0  0  0  0
  9 18  1  0  0  0  0
 10 12  1  0  0  0  0
 10 16  2  0  0  0  0
 11 13  1  0  0  0  0
 11 35  1  0  0  0  0
 11 36  1  0  0  0  0
 12 14  1  0  0  0  0
 12 19  2  0  0  0  0
 14 20  2  0  0  0  0
 15 38  1  0  0  0  0
 15 39  1  0  0  0  0
 15 40  1  0  0  0  0
 16 41  1  0  0  0  0
 17 21  1  0  0  0  0
 17 42  1  0  0  0  0
 18 22  2  0  0  0  0
 18 43  1  0  0  0  0
 19 23  1  0  0  0  0
 19 45  1  0  0  0  0
 20 24  1  0  0  0  0
 20 46  1  0  0  0  0
 21 25  2  0  0  0  0
 21 47  1  0  0  0  0
 22 25  1  0  0  0  0
 22 48  1  0  0  0  0
 23 24  2  0  0  0  0
 23 49  1  0  0  0  0
 24 50  1  0  0  0  0
 25 51  1  0  0  0  0
M  END
> <PUBCHEM_COMPOUND_CID>
46635516

> <PUBCHEM_COMPOUND_CANONICALIZED>
1

> <PUBCHEM_CACTVS_COMPLEXITY>
405

> <PUBCHEM_CACTVS_HBOND_ACCEPTOR>
1

> <PUBCHEM_CACTVS_HBOND_DONOR>
2

> <PUBCHEM_CACTVS_ROTATABLE_BOND>
8

> <PUBCHEM_CACTVS_SUBSKEYS>
AAADceB7IAAAAAAAAAAAAAAAAAAAAWAAAAAwYAAAAAAAAFgB9AAAHgAQAAAADQjBngQ+wPLJkACoAzV3VACCgCAxAiAI2aE4ZJgIIPLAkZGEIAhglgDIyAcYiMCOgAAAAAACAAAAAAAAAAQAAAAAAAAAAA==

> <PUBCHEM_IUPAC_OPENEYE_NAME>
4-(1H-indol-3-yl)-N-(2-phenylbutyl)butanamide

> <PUBCHEM_IUPAC_CAS_NAME>
4-(1H-indol-3-yl)-N-(2-phenylbutyl)butanamide

> <PUBCHEM_IUPAC_NAME>
4-(1H-indol-3-yl)-N-(2-phenylbutyl)butanamide

> <PUBCHEM_IUPAC_SYSTEMATIC_NAME>
4-(1H-indol-3-yl)-N-(2-phenylbutyl)butanamide

> <PUBCHEM_IUPAC_TRADITIONAL_NAME>
4-(1H-indol-3-yl)-N-(2-phenylbutyl)butyramide

> <PUBCHEM_IUPAC_INCHI>
InChI=1S/C22H26N2O/c1-2-17(18-9-4-3-5-10-18)15-24-22(25)14-8-11-19-16-23-21-13-7-6-12-20(19)21/h3-7,9-10,12-13,16-17,23H,2,8,11,14-15H2,1H3,(H,24,25)

> <PUBCHEM_IUPAC_INCHIKEY>
PASVBIKSYYVVQF-UHFFFAOYSA-N

> <PUBCHEM_XLOGP3>
4.7

> <PUBCHEM_EXACT_MASS>
334.204513

> <PUBCHEM_MOLECULAR_FORMULA>
C22H26N2O

> <PUBCHEM_MOLECULAR_WEIGHT>
334.45464

> <PUBCHEM_OPENEYE_CAN_SMILES>
CCC(CNC(=O)CCCC1=CNC2=CC=CC=C21)C3=CC=CC=C3

> <PUBCHEM_OPENEYE_ISO_SMILES>
CCC(CNC(=O)CCCC1=CNC2=CC=CC=C21)C3=CC=CC=C3

> <PUBCHEM_CACTVS_TPSA>
44.9

> <PUBCHEM_MONOISOTOPIC_WEIGHT>
334.204513

> <PUBCHEM_TOTAL_CHARGE>
0

> <PUBCHEM_HEAVY_ATOM_COUNT>
25

> <PUBCHEM_ATOM_DEF_STEREO_COUNT>
0

> <PUBCHEM_ATOM_UDEF_STEREO_COUNT>
1

> <PUBCHEM_BOND_DEF_STEREO_COUNT>
0

> <PUBCHEM_BOND_UDEF_STEREO_COUNT>
0

> <PUBCHEM_ISOTOPIC_ATOM_COUNT>
0

> <PUBCHEM_COMPONENT_COUNT>
1

> <PUBCHEM_CACTVS_TAUTO_COUNT>
2

> <PUBCHEM_COORDINATE_TYPE>
1
5
255

> <PUBCHEM_BONDANNOTATIONS>
10  12  8
10  16  8
12  14  8
12  19  8
14  20  8
17  21  8
18  22  8
19  23  8
20  24  8
21  25  8
22  25  8
23  24  8
3  14  8
3  16  8
4  6  3
9  17  8
9  18  8

$$$$
46646789
  -OEChem-11301217582D

 46 48  0     0  0  0  0  0  0999 V2000
    3.0000   -2.2306    0.0000 S   0  0  0  0  0  0  0  0  0  0  0  0
    3.0000    1.7694    0.0000 S   0  0  0  0  0  0  0  0  0  0  0  0
    6.4641    0.7694    0.0000 F   0  0  0  0  0  0  0  0  0  0  0  0
    6.0981    2.1354    0.0000 F   0  0  0  0  0  0  0  0  0  0  0  0
    5.0981    0.4034    0.0000 F   0  0  0  0  0  0  0  0  0  0  0  0
    2.0000   -2.2306    0.0000 O   0  0  0  0  0  0  0  0  0  0  0  0
    4.0000   -2.2306    0.0000 O   0  0  0  0  0  0  0  0  0  0  0  0
    4.0000    1.7694    0.0000 O   0  0  0  0  0  0  0  0  0  0  0  0
    2.0000    1.7694    0.0000 O   0  0  0  0  0  0  0  0  0  0  0  0
    4.7320    1.7694    0.0000 O   0  0  0  0  0  0  0  0  0  0  0  0
    3.0000   -3.2306    0.0000 N   0  0  0  0  0  0  0  0  0  0  0  0
    3.0000    2.7694    0.0000 N   0  0  0  0  0  0  0  0  0  0  0  0
    2.1910   -3.8184    0.0000 C   0  0  0  0  0  0  0  0  0  0  0  0
    3.8090   -3.8184    0.0000 C   0  0  0  0  0  0  0  0  0  0  0  0
    2.5000   -4.7694    0.0000 C   0  0  0  0  0  0  0  0  0  0  0  0
    3.5000   -4.7694    0.0000 C   0  0  0  0  0  0  0  0  0  0  0  0
    3.0000   -1.2306    0.0000 C   0  0  0  0  0  0  0  0  0  0  0  0
    3.8660   -0.7306    0.0000 C   0  0  0  0  0  0  0  0  0  0  0  0
    2.1340   -0.7306    0.0000 C   0  0  0  0  0  0  0  0  0  0  0  0
    3.0000    0.7694    0.0000 C   0  0  0  0  0  0  0  0  0  0  0  0
    3.8660    0.2694    0.0000 C   0  0  0  0  0  0  0  0  0  0  0  0
    2.1340    0.2694    0.0000 C   0  0  0  0  0  0  0  0  0  0  0  0
    3.8660    3.2694    0.0000 C   0  0  0  0  0  0  0  0  0  0  0  0
    4.7320    2.7694    0.0000 C   0  0  0  0  0  0  0  0  0  0  0  0
    3.8660    4.2694    0.0000 C   0  0  0  0  0  0  0  0  0  0  0  0
    5.5981    3.2694    0.0000 C   0  0  0  0  0  0  0  0  0  0  0  0
    4.7320    4.7694    0.0000 C   0  0  0  0  0  0  0  0  0  0  0  0
    5.5981    4.2694    0.0000 C   0  0  0  0  0  0  0  0  0  0  0  0
    5.5981    1.2694    0.0000 C   0  0  0  0  0  0  0  0  0  0  0  0
    1.8810   -3.2814    0.0000 H   0  0  0  0  0  0  0  0  0  0  0  0
    1.6246   -4.0705    0.0000 H   0  0  0  0  0  0  0  0  0  0  0  0
    4.3754   -4.0705    0.0000 H   0  0  0  0  0  0  0  0  0  0  0  0
    4.1190   -3.2814    0.0000 H   0  0  0  0  0  0  0  0  0  0  0  0
    1.8936   -4.8983    0.0000 H   0  0  0  0  0  0  0  0  0  0  0  0
    2.5648   -5.3860    0.0000 H   0  0  0  0  0  0  0  0  0  0  0  0
    3.4352   -5.3860    0.0000 H   0  0  0  0  0  0  0  0  0  0  0  0
    4.1064   -4.8983    0.0000 H   0  0  0  0  0  0  0  0  0  0  0  0
    4.4030   -1.0406    0.0000 H   0  0  0  0  0  0  0  0  0  0  0  0
    1.5970   -1.0406    0.0000 H   0  0  0  0  0  0  0  0  0  0  0  0
    4.4030    0.5794    0.0000 H   0  0  0  0  0  0  0  0  0  0  0  0
    1.5970    0.5794    0.0000 H   0  0  0  0  0  0  0  0  0  0  0  0
    2.4631    3.0794    0.0000 H   0  0  0  0  0  0  0  0  0  0  0  0
    3.3291    4.5794    0.0000 H   0  0  0  0  0  0  0  0  0  0  0  0
    6.1350    2.9594    0.0000 H   0  0  0  0  0  0  0  0  0  0  0  0
    4.7320    5.3894    0.0000 H   0  0  0  0  0  0  0  0  0  0  0  0
    6.1350    4.5794    0.0000 H   0  0  0  0  0  0  0  0  0  0  0  0
  1  6  2  0  0  0  0
  1  7  2  0  0  0  0
  1 11  1  0  0  0  0
  1 17  1  0  0  0  0
  2  8  2  0  0  0  0
  2  9  2  0  0  0  0
  2 12  1  0  0  0  0
  2 20  1  0  0  0  0
  3 29  1  0  0  0  0
  4 29  1  0  0  0  0
  5 29  1  0  0  0  0
 10 24  1  0  0  0  0
 10 29  1  0  0  0  0
 11 13  1  0  0  0  0
 11 14  1  0  0  0  0
 12 23  1  0  0  0  0
 12 42  1  0  0  0  0
 13 15  1  0  0  0  0
 13 30  1  0  0  0  0
 13 31  1  0  0  0  0
 14 16  1  0  0  0  0
 14 32  1  0  0  0  0
 14 33  1  0  0  0  0
 15 16  1  0  0  0  0
 15 34  1  0  0  0  0
 15 35  1  0  0  0  0
 16 36  1  0  0  0  0
 16 37  1  0  0  0  0
 17 18  2  0  0  0  0
 17 19  1  0  0  0  0
 18 21  1  0  0  0  0
 18 38  1  0  0  0  0
 19 22  2  0  0  0  0
 19 39  1  0  0  0  0
 20 21  2  0  0  0  0
 20 22  1  0  0  0  0
 21 40  1  0  0  0  0
 22 41  1  0  0  0  0
 23 24  1  0  0  0  0
 23 25  2  0  0  0  0
 24 26  2  0  0  0  0
 25 27  1  0  0  0  0
 25 43  1  0  0  0  0
 26 28  1  0  0  0  0
 26 44  1  0  0  0  0
 27 28  2  0  0  0  0
 27 45  1  0  0  0  0
 28 46  1  0  0  0  0
M  END
> <PUBCHEM_COMPOUND_CID>
46646789

> <PUBCHEM_COMPOUND_CANONICALIZED>
1

> <PUBCHEM_CACTVS_COMPLEXITY>
747

> <PUBCHEM_CACTVS_HBOND_ACCEPTOR>
10

> <PUBCHEM_CACTVS_HBOND_DONOR>
1

> <PUBCHEM_CACTVS_ROTATABLE_BOND>
6

> <PUBCHEM_CACTVS_SUBSKEYS>
AAADceB7OYBgAAAAAAAAAAAAAAAAAWAAAAAwYAAAAAAAAAABQAAAHwQQQAAACAzB0BQwx4JABAKAACRCQHDCCBAgIgAIiBgPbIgOJiKEsZuFMCBk0BGI6AeQQAAAAAgAAAAAEAAAEAAAAAAgAAAAAAAAAA==

> <PUBCHEM_IUPAC_OPENEYE_NAME>
4-pyrrolidin-1-ylsulfonyl-N-[2-(trifluoromethoxy)phenyl]benzenesulfonamide

> <PUBCHEM_IUPAC_CAS_NAME>
4-(1-pyrrolidinylsulfonyl)-N-[2-(trifluoromethoxy)phenyl]benzenesulfonamide

> <PUBCHEM_IUPAC_NAME>
4-pyrrolidin-1-ylsulfonyl-N-[2-(trifluoromethoxy)phenyl]benzenesulfonamide

> <PUBCHEM_IUPAC_SYSTEMATIC_NAME>
4-pyrrolidin-1-ylsulfonyl-N-[2-(trifluoromethyloxy)phenyl]benzenesulfonamide

> <PUBCHEM_IUPAC_TRADITIONAL_NAME>
4-pyrrolidinosulfonyl-N-[2-(trifluoromethoxy)phenyl]benzenesulfonamide

> <PUBCHEM_IUPAC_INCHI>
InChI=1S/C17H17F3N2O5S2/c18-17(19,20)27-16-6-2-1-5-15(16)21-28(23,24)13-7-9-14(10-8-13)29(25,26)22-11-3-4-12-22/h1-2,5-10,21H,3-4,11-12H2

> <PUBCHEM_IUPAC_INCHIKEY>
ZNYUXXPFEDJNHY-UHFFFAOYSA-N

> <PUBCHEM_XLOGP3>
3.1

> <PUBCHEM_EXACT_MASS>
450.053098

> <PUBCHEM_MOLECULAR_FORMULA>
C17H17F3N2O5S2

> <PUBCHEM_MOLECULAR_WEIGHT>
450.45249

> <PUBCHEM_OPENEYE_CAN_SMILES>
C1CCN(C1)S(=O)(=O)C2=CC=C(C=C2)S(=O)(=O)NC3=CC=CC=C3OC(F)(F)F

> <PUBCHEM_OPENEYE_ISO_SMILES>
C1CCN(C1)S(=O)(=O)C2=CC=C(C=C2)S(=O)(=O)NC3=CC=CC=C3OC(F)(F)F

> <PUBCHEM_CACTVS_TPSA>
110

> <PUBCHEM_MONOISOTOPIC_WEIGHT>
450.053098

> <PUBCHEM_TOTAL_CHARGE>
0

> <PUBCHEM_HEAVY_ATOM_COUNT>
29

> <PUBCHEM_ATOM_DEF_STEREO_COUNT>
0

> <PUBCHEM_ATOM_UDEF_STEREO_COUNT>
0

> <PUBCHEM_BOND_DEF_STEREO_COUNT>
0

> <PUBCHEM_BOND_UDEF_STEREO_COUNT>
0

> <PUBCHEM_ISOTOPIC_ATOM_COUNT>
0

> <PUBCHEM_COMPONENT_COUNT>
1

> <PUBCHEM_CACTVS_TAUTO_COUNT>
1

> <PUBCHEM_COORDINATE_TYPE>
1
5
255

> <PUBCHEM_BONDANNOTATIONS>
17  18  8
17  19  8
18  21  8
19  22  8
20  21  8
20  22  8
23  24  8
23  25  8
24  26  8
25  27  8
26  28  8
27  28  8

$$$$
