39104101
  -OEChem-06181312472D

 23 23  0     0  0  0  0  0  0999 V2000
    3.7320   -2.7500    0.0000 Cl  0  0  0  0  0  0  0  0  0  0  0  0
    2.8660    1.7500    0.0000 O   0  0  0  0  0  0  0  0  0  0  0  0
    3.7320    0.2500    0.0000 C   0  0  0  0  0  0  0  0  0  0  0  0
    2.8660   -1.2500    0.0000 C   0  0  0  0  0  0  0  0  0  0  0  0
    4.5981    1.7500    0.0000 C   0  0  0  0  0  0  0  0  0  0  0  0
    2.8660   -0.2500    0.0000 C   0  0  0  0  0  0  0  0  0  0  0  0
    3.7320    1.2500    0.0000 C   0  0  0  0  0  0  0  0  0  0  0  0
    4.5981   -0.2500    0.0000 C   0  0  0  0  0  0  0  0  0  0  0  0
    3.7320   -1.7500    0.0000 C   0  0  0  0  0  0  0  0  0  0  0  0
    4.5981   -1.2500    0.0000 C   0  0  0  0  0  0  0  0  0  0  0  0
    4.5981    2.7500    0.0000 C   0  0  0  0  0  0  0  0  0  0  0  0
    2.0000   -1.7500    0.0000 C   0  0  0  0  0  0  0  0  0  0  0  0
    4.8101    1.1674    0.0000 H   0  0  0  0  0  0  0  0  0  0  0  0
    5.2087    1.8577    0.0000 H   0  0  0  0  0  0  0  0  0  0  0  0
    2.3291    0.0600    0.0000 H   0  0  0  0  0  0  0  0  0  0  0  0
    5.1350    0.0600    0.0000 H   0  0  0  0  0  0  0  0  0  0  0  0
    5.1350   -1.5600    0.0000 H   0  0  0  0  0  0  0  0  0  0  0  0
    5.2181    2.7500    0.0000 H   0  0  0  0  0  0  0  0  0  0  0  0
    4.5981    3.3700    0.0000 H   0  0  0  0  0  0  0  0  0  0  0  0
    3.9781    2.7500    0.0000 H   0  0  0  0  0  0  0  0  0  0  0  0
    1.6900   -1.2131    0.0000 H   0  0  0  0  0  0  0  0  0  0  0  0
    1.4631   -2.0600    0.0000 H   0  0  0  0  0  0  0  0  0  0  0  0
    2.3100   -2.2869    0.0000 H   0  0  0  0  0  0  0  0  0  0  0  0
  1  9  1  0  0  0  0
  2  7  2  0  0  0  0
  3  6  2  0  0  0  0
  3  7  1  0  0  0  0
  3  8  1  0  0  0  0
  4  6  1  0  0  0  0
  4  9  2  0  0  0  0
  4 12  1  0  0  0  0
  5  7  1  0  0  0  0
  5 11  1  0  0  0  0
  5 13  1  0  0  0  0
  5 14  1  0  0  0  0
  6 15  1  0  0  0  0
  8 10  2  0  0  0  0
  8 16  1  0  0  0  0
  9 10  1  0  0  0  0
 10 17  1  0  0  0  0
 11 18  1  0  0  0  0
 11 19  1  0  0  0  0
 11 20  1  0  0  0  0
 12 21  1  0  0  0  0
 12 22  1  0  0  0  0
 12 23  1  0  0  0  0
M  END
> <PUBCHEM_COMPOUND_CID>
39104101

> <PUBCHEM_COMPOUND_CANONICALIZED>
1

> <PUBCHEM_CACTVS_COMPLEXITY>
167

> <PUBCHEM_CACTVS_HBOND_ACCEPTOR>
1

> <PUBCHEM_CACTVS_HBOND_DONOR>
0

> <PUBCHEM_CACTVS_ROTATABLE_BOND>
2

> <PUBCHEM_CACTVS_SUBSKEYS>
AAADccBwIAAEAAAAAAAAAAAAAAAAAAAAAAAwAAAAAAAAAAABAAAAGgIAAAAADAaAmCAyAIAAAACIAqBSAAACAAAkBQAIiAEAAsgIIDKBFxCAIQAggAAIiYcIiMCOBAACAAABAAAIAAQAAAIAAAAAAAAAAA==

> <PUBCHEM_IUPAC_OPENEYE_NAME>
1-(4-chloro-3-methyl-phenyl)propan-1-one

> <PUBCHEM_IUPAC_CAS_NAME>
1-(4-chloro-3-methylphenyl)-1-propanone

> <PUBCHEM_IUPAC_NAME>
1-(4-chloro-3-methylphenyl)propan-1-one

> <PUBCHEM_IUPAC_SYSTEMATIC_NAME>
1-(4-chloranyl-3-methyl-phenyl)propan-1-one

> <PUBCHEM_IUPAC_TRADITIONAL_NAME>
1-(4-chloro-3-methyl-phenyl)propan-1-one

> <PUBCHEM_IUPAC_INCHI>
InChI=1S/C10H11ClO/c1-3-10(12)8-4-5-9(11)7(2)6-8/h4-6H,3H2,1-2H3

> <PUBCHEM_IUPAC_INCHIKEY>
GLACWDSQAVVCAU-UHFFFAOYSA-N

> <PUBCHEM_XLOGP3>
3.6

> <PUBCHEM_EXACT_MASS>
182.049843

> <PUBCHEM_MOLECULAR_FORMULA>
C10H11ClO

> <PUBCHEM_MOLECULAR_WEIGHT>
182.64674

> <PUBCHEM_OPENEYE_CAN_SMILES>
CCC(=O)C1=CC(=C(C=C1)Cl)C

> <PUBCHEM_OPENEYE_ISO_SMILES>
CCC(=O)C1=CC(=C(C=C1)Cl)C

> <PUBCHEM_CACTVS_TPSA>
17.1

> <PUBCHEM_MONOISOTOPIC_WEIGHT>
182.049843

> <PUBCHEM_TOTAL_CHARGE>
0

> <PUBCHEM_HEAVY_ATOM_COUNT>
12

> <PUBCHEM_ATOM_DEF_STEREO_COUNT>
0

> <PUBCHEM_ATOM_UDEF_STEREO_COUNT>
0

> <PUBCHEM_BOND_DEF_STEREO_COUNT>
0

> <PUBCHEM_BOND_UDEF_STEREO_COUNT>
0

> <PUBCHEM_ISOTOPIC_ATOM_COUNT>
0

> <PUBCHEM_COMPONENT_COUNT>
1

> <PUBCHEM_CACTVS_TAUTO_COUNT>
2

> <PUBCHEM_COORDINATE_TYPE>
1
5
255

> <PUBCHEM_BONDANNOTATIONS>
3  6  8
3  8  8
4  6  8
4  9  8
8  10  8
9  10  8

$$$$
39104104
  -OEChem-06181312472D

 26 26  0     0  0  0  0  0  0999 V2000
    3.7320   -3.0000    0.0000 Cl  0  0  0  0  0  0  0  0  0  0  0  0
    2.8660    1.5000    0.0000 O   0  0  0  0  0  0  0  0  0  0  0  0
    4.5981    1.5000    0.0000 C   0  0  0  0  0  0  0  0  0  0  0  0
    4.5981    2.5000    0.0000 C   0  0  0  0  0  0  0  0  0  0  0  0
    3.7320    0.0000    0.0000 C   0  0  0  0  0  0  0  0  0  0  0  0
    3.7320    1.0000    0.0000 C   0  0  0  0  0  0  0  0  0  0  0  0
    2.8660   -0.5000    0.0000 C   0  0  0  0  0  0  0  0  0  0  0  0
    2.8660   -1.5000    0.0000 C   0  0  0  0  0  0  0  0  0  0  0  0
    4.5981   -0.5000    0.0000 C   0  0  0  0  0  0  0  0  0  0  0  0
    5.4641    3.0000    0.0000 C   0  0  0  0  0  0  0  0  0  0  0  0
    3.7320   -2.0000    0.0000 C   0  0  0  0  0  0  0  0  0  0  0  0
    4.5981   -1.5000    0.0000 C   0  0  0  0  0  0  0  0  0  0  0  0
    2.0000   -2.0000    0.0000 C   0  0  0  0  0  0  0  0  0  0  0  0
    4.8101    0.9174    0.0000 H   0  0  0  0  0  0  0  0  0  0  0  0
    5.2087    1.6077    0.0000 H   0  0  0  0  0  0  0  0  0  0  0  0
    4.3860    3.0826    0.0000 H   0  0  0  0  0  0  0  0  0  0  0  0
    3.9875    2.3923    0.0000 H   0  0  0  0  0  0  0  0  0  0  0  0
    2.3291   -0.1900    0.0000 H   0  0  0  0  0  0  0  0  0  0  0  0
    5.1350   -0.1900    0.0000 H   0  0  0  0  0  0  0  0  0  0  0  0
    5.7741    2.4631    0.0000 H   0  0  0  0  0  0  0  0  0  0  0  0
    6.0010    3.3100    0.0000 H   0  0  0  0  0  0  0  0  0  0  0  0
    5.1541    3.5369    0.0000 H   0  0  0  0  0  0  0  0  0  0  0  0
    5.1350   -1.8100    0.0000 H   0  0  0  0  0  0  0  0  0  0  0  0
    1.6900   -1.4631    0.0000 H   0  0  0  0  0  0  0  0  0  0  0  0
    1.4631   -2.3100    0.0000 H   0  0  0  0  0  0  0  0  0  0  0  0
    2.3100   -2.5369    0.0000 H   0  0  0  0  0  0  0  0  0  0  0  0
  1 11  1  0  0  0  0
  2  6  2  0  0  0  0
  3  4  1  0  0  0  0
  3  6  1  0  0  0  0
  3 14  1  0  0  0  0
  3 15  1  0  0  0  0
  4 10  1  0  0  0  0
  4 16  1  0  0  0  0
  4 17  1  0  0  0  0
  5  6  1  0  0  0  0
  5  7  2  0  0  0  0
  5  9  1  0  0  0  0
  7  8  1  0  0  0  0
  7 18  1  0  0  0  0
  8 11  2  0  0  0  0
  8 13  1  0  0  0  0
  9 12  2  0  0  0  0
  9 19  1  0  0  0  0
 10 20  1  0  0  0  0
 10 21  1  0  0  0  0
 10 22  1  0  0  0  0
 11 12  1  0  0  0  0
 12 23  1  0  0  0  0
 13 24  1  0  0  0  0
 13 25  1  0  0  0  0
 13 26  1  0  0  0  0
M  END
> <PUBCHEM_COMPOUND_CID>
39104104

> <PUBCHEM_COMPOUND_CANONICALIZED>
1

> <PUBCHEM_CACTVS_COMPLEXITY>
179

> <PUBCHEM_CACTVS_HBOND_ACCEPTOR>
1

> <PUBCHEM_CACTVS_HBOND_DONOR>
0

> <PUBCHEM_CACTVS_ROTATABLE_BOND>
3

> <PUBCHEM_CACTVS_SUBSKEYS>
AAADccBwIAAEAAAAAAAAAAAAAAAAAAAAAAAwAAAAAAAAAAABAAAAGgIAAAAADAaAmCAyAIAAAACIAqBSAAACAAAkBQAIiAEAAsgIIDKBFxCAIQAggAAIiYcIiMCOBAACAAABAAAIAAQAAAIAAAAAAAAAAA==

> <PUBCHEM_IUPAC_OPENEYE_NAME>
1-(4-chloro-3-methyl-phenyl)butan-1-one

> <PUBCHEM_IUPAC_CAS_NAME>
1-(4-chloro-3-methylphenyl)-1-butanone

> <PUBCHEM_IUPAC_NAME>
1-(4-chloro-3-methylphenyl)butan-1-one

> <PUBCHEM_IUPAC_SYSTEMATIC_NAME>
1-(4-chloranyl-3-methyl-phenyl)butan-1-one

> <PUBCHEM_IUPAC_TRADITIONAL_NAME>
1-(4-chloro-3-methyl-phenyl)butan-1-one

> <PUBCHEM_IUPAC_INCHI>
InChI=1S/C11H13ClO/c1-3-4-11(13)9-5-6-10(12)8(2)7-9/h5-7H,3-4H2,1-2H3

> <PUBCHEM_IUPAC_INCHIKEY>
PRJXSJKADPDAEF-UHFFFAOYSA-N

> <PUBCHEM_XLOGP3>
4

> <PUBCHEM_EXACT_MASS>
196.065493

> <PUBCHEM_MOLECULAR_FORMULA>
C11H13ClO

> <PUBCHEM_MOLECULAR_WEIGHT>
196.67332

> <PUBCHEM_OPENEYE_CAN_SMILES>
CCCC(=O)C1=CC(=C(C=C1)Cl)C

> <PUBCHEM_OPENEYE_ISO_SMILES>
CCCC(=O)C1=CC(=C(C=C1)Cl)C

> <PUBCHEM_CACTVS_TPSA>
17.1

> <PUBCHEM_MONOISOTOPIC_WEIGHT>
196.065493

> <PUBCHEM_TOTAL_CHARGE>
0

> <PUBCHEM_HEAVY_ATOM_COUNT>
13

> <PUBCHEM_ATOM_DEF_STEREO_COUNT>
0

> <PUBCHEM_ATOM_UDEF_STEREO_COUNT>
0

> <PUBCHEM_BOND_DEF_STEREO_COUNT>
0

> <PUBCHEM_BOND_UDEF_STEREO_COUNT>
0

> <PUBCHEM_ISOTOPIC_ATOM_COUNT>
0

> <PUBCHEM_COMPONENT_COUNT>
1

> <PUBCHEM_CACTVS_TAUTO_COUNT>
2

> <PUBCHEM_COORDINATE_TYPE>
1
5
255

> <PUBCHEM_BONDANNOTATIONS>
11  12  8
5  7  8
5  9  8
7  8  8
8  11  8
9  12  8

$$$$
