63860631
  -OEChem-11301218242D

 36 38  0     1  0  0  0  0  0999 V2000
    6.7619    1.9680    0.0000 O   0  0  0  0  0  0  0  0  0  0  0  0
    6.7619    0.2360    0.0000 N   0  0  0  0  0  0  0  0  0  0  0  0
    4.6783    1.9067    0.0000 N   0  0  0  0  0  0  0  0  0  0  0  0
    8.2619   -0.6300    0.0000 C   0  0  3  0  0  0  0  0  0  0  0  0
    8.2619   -1.6300    0.0000 C   0  0  3  0  0  0  0  0  0  0  0  0
    9.1279   -1.1300    0.0000 C   0  0  0  0  0  0  0  0  0  0  0  0
    7.7619    0.2360    0.0000 C   0  0  0  0  0  0  0  0  0  0  0  0
    7.7619   -2.4961    0.0000 C   0  0  0  0  0  0  0  0  0  0  0  0
    6.2619    1.1020    0.0000 C   0  0  0  0  0  0  0  0  0  0  0  0
    6.2619   -0.6300    0.0000 C   0  0  0  0  0  0  0  0  0  0  0  0
    5.2619    1.1020    0.0000 C   0  0  0  0  0  0  0  0  0  0  0  0
    4.6783    0.2973    0.0000 C   0  0  0  0  0  0  0  0  0  0  0  0
    3.7320    1.6020    0.0000 C   0  0  0  0  0  0  0  0  0  0  0  0
    3.7320    0.6020    0.0000 C   0  0  0  0  0  0  0  0  0  0  0  0
    2.8660    2.1020    0.0000 C   0  0  0  0  0  0  0  0  0  0  0  0
    2.8660    0.1020    0.0000 C   0  0  0  0  0  0  0  0  0  0  0  0
    2.0000    1.6020    0.0000 C   0  0  0  0  0  0  0  0  0  0  0  0
    2.0000    0.6020    0.0000 C   0  0  0  0  0  0  0  0  0  0  0  0
    8.7003   -0.1916    0.0000 H   0  0  0  0  0  0  0  0  0  0  0  0
    8.7003   -2.0684    0.0000 H   0  0  0  0  0  0  0  0  0  0  0  0
    9.5264   -1.6050    0.0000 H   0  0  0  0  0  0  0  0  0  0  0  0
    9.5264   -0.6551    0.0000 H   0  0  0  0  0  0  0  0  0  0  0  0
    8.3445    0.4480    0.0000 H   0  0  0  0  0  0  0  0  0  0  0  0
    7.6542    0.8466    0.0000 H   0  0  0  0  0  0  0  0  0  0  0  0
    7.2249   -2.1861    0.0000 H   0  0  0  0  0  0  0  0  0  0  0  0
    7.4519   -3.0330    0.0000 H   0  0  0  0  0  0  0  0  0  0  0  0
    8.2988   -2.8061    0.0000 H   0  0  0  0  0  0  0  0  0  0  0  0
    5.7249   -0.3200    0.0000 H   0  0  0  0  0  0  0  0  0  0  0  0
    5.9519   -1.1670    0.0000 H   0  0  0  0  0  0  0  0  0  0  0  0
    6.7988   -0.9400    0.0000 H   0  0  0  0  0  0  0  0  0  0  0  0
    4.8709    2.4961    0.0000 H   0  0  0  0  0  0  0  0  0  0  0  0
    4.8709   -0.2920    0.0000 H   0  0  0  0  0  0  0  0  0  0  0  0
    2.8660    2.7220    0.0000 H   0  0  0  0  0  0  0  0  0  0  0  0
    2.8660   -0.5180    0.0000 H   0  0  0  0  0  0  0  0  0  0  0  0
    1.4631    1.9120    0.0000 H   0  0  0  0  0  0  0  0  0  0  0  0
    1.4631    0.2920    0.0000 H   0  0  0  0  0  0  0  0  0  0  0  0
  1  9  2  0  0  0  0
  2  7  1  0  0  0  0
  2  9  1  0  0  0  0
  2 10  1  0  0  0  0
  3 11  1  0  0  0  0
  3 13  1  0  0  0  0
  3 31  1  0  0  0  0
  4  5  1  0  0  0  0
  4  6  1  0  0  0  0
  4  7  1  0  0  0  0
  4 19  1  0  0  0  0
  5  6  1  0  0  0  0
  5  8  1  0  0  0  0
  5 20  1  0  0  0  0
  6 21  1  0  0  0  0
  6 22  1  0  0  0  0
  7 23  1  0  0  0  0
  7 24  1  0  0  0  0
  8 25  1  0  0  0  0
  8 26  1  0  0  0  0
  8 27  1  0  0  0  0
  9 11  1  0  0  0  0
 10 28  1  0  0  0  0
 10 29  1  0  0  0  0
 10 30  1  0  0  0  0
 11 12  2  0  0  0  0
 12 14  1  0  0  0  0
 12 32  1  0  0  0  0
 13 14  1  0  0  0  0
 13 15  2  0  0  0  0
 14 16  2  0  0  0  0
 15 17  1  0  0  0  0
 15 33  1  0  0  0  0
 16 18  1  0  0  0  0
 16 34  1  0  0  0  0
 17 18  2  0  0  0  0
 17 35  1  0  0  0  0
 18 36  1  0  0  0  0
M  END
> <PUBCHEM_COMPOUND_CID>
63860631

> <PUBCHEM_COMPOUND_CANONICALIZED>
1

> <PUBCHEM_CACTVS_COMPLEXITY>
331

> <PUBCHEM_CACTVS_HBOND_ACCEPTOR>
1

> <PUBCHEM_CACTVS_HBOND_DONOR>
1

> <PUBCHEM_CACTVS_ROTATABLE_BOND>
3

> <PUBCHEM_CACTVS_SUBSKEYS>
AAADceBzIAAAAAAAAAAAAAAAGAAAAWAAAAAwAAAAAAAAAFgB8AAAHgAQAAAADQjBngQywPPJkACoAyVyVACCgCAnAiAImSG4ZNgIYPLAlbGUIQhglgDIyYcYiYCeAAAAAAACAAAAAAAAAAQAAAAAAAAAAA==

> <PUBCHEM_IUPAC_OPENEYE_NAME>
N-methyl-N-[(2-methylcyclopropyl)methyl]-1H-indole-2-carboxamide

> <PUBCHEM_IUPAC_CAS_NAME>
N-methyl-N-[(2-methylcyclopropyl)methyl]-1H-indole-2-carboxamide

> <PUBCHEM_IUPAC_NAME>
N-methyl-N-[(2-methylcyclopropyl)methyl]-1H-indole-2-carboxamide

> <PUBCHEM_IUPAC_SYSTEMATIC_NAME>
N-methyl-N-[(2-methylcyclopropyl)methyl]-1H-indole-2-carboxamide

> <PUBCHEM_IUPAC_TRADITIONAL_NAME>
N-methyl-N-[(2-methylcyclopropyl)methyl]-1H-indole-2-carboxamide

> <PUBCHEM_IUPAC_INCHI>
InChI=1S/C15H18N2O/c1-10-7-12(10)9-17(2)15(18)14-8-11-5-3-4-6-13(11)16-14/h3-6,8,10,12,16H,7,9H2,1-2H3

> <PUBCHEM_IUPAC_INCHIKEY>
KFWSNAUOHHMIDM-UHFFFAOYSA-N

> <PUBCHEM_XLOGP3>
3.4

> <PUBCHEM_EXACT_MASS>
242.141913

> <PUBCHEM_MOLECULAR_FORMULA>
C15H18N2O

> <PUBCHEM_MOLECULAR_WEIGHT>
242.31622

> <PUBCHEM_OPENEYE_CAN_SMILES>
CC1CC1CN(C)C(=O)C2=CC3=CC=CC=C3N2

> <PUBCHEM_OPENEYE_ISO_SMILES>
CC1CC1CN(C)C(=O)C2=CC3=CC=CC=C3N2

> <PUBCHEM_CACTVS_TPSA>
36.1

> <PUBCHEM_MONOISOTOPIC_WEIGHT>
242.141913

> <PUBCHEM_TOTAL_CHARGE>
0

> <PUBCHEM_HEAVY_ATOM_COUNT>
18

> <PUBCHEM_ATOM_DEF_STEREO_COUNT>
0

> <PUBCHEM_ATOM_UDEF_STEREO_COUNT>
2

> <PUBCHEM_BOND_DEF_STEREO_COUNT>
0

> <PUBCHEM_BOND_UDEF_STEREO_COUNT>
0

> <PUBCHEM_ISOTOPIC_ATOM_COUNT>
0

> <PUBCHEM_COMPONENT_COUNT>
1

> <PUBCHEM_CACTVS_TAUTO_COUNT>
6

> <PUBCHEM_COORDINATE_TYPE>
1
5
255

> <PUBCHEM_BONDANNOTATIONS>
11  12  8
12  14  8
13  14  8
13  15  8
14  16  8
15  17  8
16  18  8
17  18  8
3  11  8
3  13  8
4  7  3
5  8  3

$$$$
63860637
  -OEChem-11301218242D

 45 47  0     1  0  0  0  0  0999 V2000
    7.9244   -0.0311    0.0000 O   0  0  0  0  0  0  0  0  0  0  0  0
    7.5673    1.6638    0.0000 N   0  0  0  0  0  0  0  0  0  0  0  0
    4.6783   -3.2097    0.0000 N   0  0  0  0  0  0  0  0  0  0  0  0
    8.8564    2.8205    0.0000 C   0  0  3  0  0  0  0  0  0  0  0  0
    9.6007    3.4884    0.0000 C   0  0  3  0  0  0  0  0  0  0  0  0
    8.6502    3.7990    0.0000 C   0  0  0  0  0  0  0  0  0  0  0  0
    8.5458    1.8700    0.0000 C   0  0  0  0  0  0  0  0  0  0  0  0
   10.5792    3.6946    0.0000 C   0  0  0  0  0  0  0  0  0  0  0  0
    7.2566    0.7133    0.0000 C   0  0  0  0  0  0  0  0  0  0  0  0
    6.8994    2.4081    0.0000 C   0  0  0  0  0  0  0  0  0  0  0  0
    6.2781    0.5070    0.0000 C   0  0  0  0  0  0  0  0  0  0  0  0
    5.9674   -0.4435    0.0000 C   0  0  0  0  0  0  0  0  0  0  0  0
    4.9889   -0.6497    0.0000 C   0  0  0  0  0  0  0  0  0  0  0  0
    4.6783   -1.6002    0.0000 C   0  0  0  0  0  0  0  0  0  0  0  0
    3.7320   -1.9050    0.0000 C   0  0  0  0  0  0  0  0  0  0  0  0
    3.7320   -2.9050    0.0000 C   0  0  0  0  0  0  0  0  0  0  0  0
    5.2619   -2.4050    0.0000 C   0  0  0  0  0  0  0  0  0  0  0  0
    2.8660   -1.4050    0.0000 C   0  0  0  0  0  0  0  0  0  0  0  0
    2.8660   -3.4050    0.0000 C   0  0  0  0  0  0  0  0  0  0  0  0
    2.0000   -1.9050    0.0000 C   0  0  0  0  0  0  0  0  0  0  0  0
    2.0000   -2.9050    0.0000 C   0  0  0  0  0  0  0  0  0  0  0  0
    8.2373    2.8540    0.0000 H   0  0  0  0  0  0  0  0  0  0  0  0
    9.6343    4.1074    0.0000 H   0  0  0  0  0  0  0  0  0  0  0  0
    8.7376    4.4128    0.0000 H   0  0  0  0  0  0  0  0  0  0  0  0
    8.0306    3.7784    0.0000 H   0  0  0  0  0  0  0  0  0  0  0  0
    8.5663    1.2503    0.0000 H   0  0  0  0  0  0  0  0  0  0  0  0
    9.1596    1.7826    0.0000 H   0  0  0  0  0  0  0  0  0  0  0  0
   10.7071    3.0879    0.0000 H   0  0  0  0  0  0  0  0  0  0  0  0
   11.1859    3.8224    0.0000 H   0  0  0  0  0  0  0  0  0  0  0  0
   10.4514    4.3012    0.0000 H   0  0  0  0  0  0  0  0  0  0  0  0
    7.3609    2.8221    0.0000 H   0  0  0  0  0  0  0  0  0  0  0  0
    6.4854    2.8695    0.0000 H   0  0  0  0  0  0  0  0  0  0  0  0
    6.4380    1.9940    0.0000 H   0  0  0  0  0  0  0  0  0  0  0  0
    6.2575    1.1267    0.0000 H   0  0  0  0  0  0  0  0  0  0  0  0
    5.6643    0.5944    0.0000 H   0  0  0  0  0  0  0  0  0  0  0  0
    5.9880   -1.0632    0.0000 H   0  0  0  0  0  0  0  0  0  0  0  0
    6.5812   -0.5308    0.0000 H   0  0  0  0  0  0  0  0  0  0  0  0
    4.9684   -0.0300    0.0000 H   0  0  0  0  0  0  0  0  0  0  0  0
    4.3751   -0.5624    0.0000 H   0  0  0  0  0  0  0  0  0  0  0  0
    5.8819   -2.4050    0.0000 H   0  0  0  0  0  0  0  0  0  0  0  0
    4.8709   -3.7990    0.0000 H   0  0  0  0  0  0  0  0  0  0  0  0
    2.8660   -0.7850    0.0000 H   0  0  0  0  0  0  0  0  0  0  0  0
    2.8660   -4.0250    0.0000 H   0  0  0  0  0  0  0  0  0  0  0  0
    1.4631   -1.5950    0.0000 H   0  0  0  0  0  0  0  0  0  0  0  0
    1.4631   -3.2150    0.0000 H   0  0  0  0  0  0  0  0  0  0  0  0
  1  9  2  0  0  0  0
  2  7  1  0  0  0  0
  2  9  1  0  0  0  0
  2 10  1  0  0  0  0
  3 16  1  0  0  0  0
  3 17  1  0  0  0  0
  3 41  1  0  0  0  0
  4  5  1  0  0  0  0
  4  6  1  0  0  0  0
  4  7  1  0  0  0  0
  4 22  1  0  0  0  0
  5  6  1  0  0  0  0
  5  8  1  0  0  0  0
  5 23  1  0  0  0  0
  6 24  1  0  0  0  0
  6 25  1  0  0  0  0
  7 26  1  0  0  0  0
  7 27  1  0  0  0  0
  8 28  1  0  0  0  0
  8 29  1  0  0  0  0
  8 30  1  0  0  0  0
  9 11  1  0  0  0  0
 10 31  1  0  0  0  0
 10 32  1  0  0  0  0
 10 33  1  0  0  0  0
 11 12  1  0  0  0  0
 11 34  1  0  0  0  0
 11 35  1  0  0  0  0
 12 13  1  0  0  0  0
 12 36  1  0  0  0  0
 12 37  1  0  0  0  0
 13 14  1  0  0  0  0
 13 38  1  0  0  0  0
 13 39  1  0  0  0  0
 14 15  1  0  0  0  0
 14 17  2  0  0  0  0
 15 16  1  0  0  0  0
 15 18  2  0  0  0  0
 16 19  2  0  0  0  0
 17 40  1  0  0  0  0
 18 20  1  0  0  0  0
 18 42  1  0  0  0  0
 19 21  1  0  0  0  0
 19 43  1  0  0  0  0
 20 21  2  0  0  0  0
 20 44  1  0  0  0  0
 21 45  1  0  0  0  0
M  END
> <PUBCHEM_COMPOUND_CID>
63860637

> <PUBCHEM_COMPOUND_CANONICALIZED>
1

> <PUBCHEM_CACTVS_COMPLEXITY>
370

> <PUBCHEM_CACTVS_HBOND_ACCEPTOR>
1

> <PUBCHEM_CACTVS_HBOND_DONOR>
1

> <PUBCHEM_CACTVS_ROTATABLE_BOND>
6

> <PUBCHEM_CACTVS_SUBSKEYS>
AAADceB7IAAAAAAAAAAAAAAAGAAAAWAAAAAwAAAAAAAAAFgB8AAAHgAQAAAADQjBngQ+wPPJkACoAzV3VACCgCAxAiAI2aE4ZJgIIPLAkZGEIAhglgDIyAcYiMCOgAAAAAACAAAAAAAAAAQAAAAAAAAAAA==

> <PUBCHEM_IUPAC_OPENEYE_NAME>
4-(1H-indol-3-yl)-N-methyl-N-[(2-methylcyclopropyl)methyl]butanamide

> <PUBCHEM_IUPAC_CAS_NAME>
4-(1H-indol-3-yl)-N-methyl-N-[(2-methylcyclopropyl)methyl]butanamide

> <PUBCHEM_IUPAC_NAME>
4-(1H-indol-3-yl)-N-methyl-N-[(2-methylcyclopropyl)methyl]butanamide

> <PUBCHEM_IUPAC_SYSTEMATIC_NAME>
4-(1H-indol-3-yl)-N-methyl-N-[(2-methylcyclopropyl)methyl]butanamide

> <PUBCHEM_IUPAC_TRADITIONAL_NAME>
4-(1H-indol-3-yl)-N-methyl-N-[(2-methylcyclopropyl)methyl]butyramide

> <PUBCHEM_IUPAC_INCHI>
InChI=1S/C18H24N2O/c1-13-10-15(13)12-20(2)18(21)9-5-6-14-11-19-17-8-4-3-7-16(14)17/h3-4,7-8,11,13,15,19H,5-6,9-10,12H2,1-2H3

> <PUBCHEM_IUPAC_INCHIKEY>
IDBZWGXKQBYMJP-UHFFFAOYSA-N

> <PUBCHEM_XLOGP3>
3.4

> <PUBCHEM_EXACT_MASS>
284.188863

> <PUBCHEM_MOLECULAR_FORMULA>
C18H24N2O

> <PUBCHEM_MOLECULAR_WEIGHT>
284.39596

> <PUBCHEM_OPENEYE_CAN_SMILES>
CC1CC1CN(C)C(=O)CCCC2=CNC3=CC=CC=C32

> <PUBCHEM_OPENEYE_ISO_SMILES>
CC1CC1CN(C)C(=O)CCCC2=CNC3=CC=CC=C32

> <PUBCHEM_CACTVS_TPSA>
36.1

> <PUBCHEM_MONOISOTOPIC_WEIGHT>
284.188863

> <PUBCHEM_TOTAL_CHARGE>
0

> <PUBCHEM_HEAVY_ATOM_COUNT>
21

> <PUBCHEM_ATOM_DEF_STEREO_COUNT>
0

> <PUBCHEM_ATOM_UDEF_STEREO_COUNT>
2

> <PUBCHEM_BOND_DEF_STEREO_COUNT>
0

> <PUBCHEM_BOND_UDEF_STEREO_COUNT>
0

> <PUBCHEM_ISOTOPIC_ATOM_COUNT>
0

> <PUBCHEM_COMPONENT_COUNT>
1

> <PUBCHEM_CACTVS_TAUTO_COUNT>
1

> <PUBCHEM_COORDINATE_TYPE>
1
5
255

> <PUBCHEM_BONDANNOTATIONS>
14  15  8
14  17  8
15  16  8
15  18  8
16  19  8
18  20  8
19  21  8
20  21  8
3  16  8
3  17  8
4  7  3
5  8  3

$$$$
63860638
  -OEChem-11301218242D

 42 44  0     1  0  0  0  0  0999 V2000
    5.6103    1.8819    0.0000 O   0  0  0  0  0  0  0  0  0  0  0  0
    7.2566    1.3438    0.0000 N   0  0  0  0  0  0  0  0  0  0  0  0
    4.6783   -2.5791    0.0000 N   0  0  0  0  0  0  0  0  0  0  0  0
    8.5458    2.5006    0.0000 C   0  0  3  0  0  0  0  0  0  0  0  0
    9.4963    2.1899    0.0000 C   0  0  3  0  0  0  0  0  0  0  0  0
    9.2901    3.1684    0.0000 C   0  0  0  0  0  0  0  0  0  0  0  0
    7.5673    2.2944    0.0000 C   0  0  0  0  0  0  0  0  0  0  0  0
   10.1641    1.4456    0.0000 C   0  0  0  0  0  0  0  0  0  0  0  0
    6.2781    1.1376    0.0000 C   0  0  0  0  0  0  0  0  0  0  0  0
    7.9244    0.5995    0.0000 C   0  0  0  0  0  0  0  0  0  0  0  0
    5.9674    0.1871    0.0000 C   0  0  0  0  0  0  0  0  0  0  0  0
    4.9889   -0.0191    0.0000 C   0  0  0  0  0  0  0  0  0  0  0  0
    4.6783   -0.9696    0.0000 C   0  0  0  0  0  0  0  0  0  0  0  0
    3.7320   -1.2744    0.0000 C   0  0  0  0  0  0  0  0  0  0  0  0
    5.2619   -1.7744    0.0000 C   0  0  0  0  0  0  0  0  0  0  0  0
    3.7320   -2.2744    0.0000 C   0  0  0  0  0  0  0  0  0  0  0  0
    2.8660   -0.7744    0.0000 C   0  0  0  0  0  0  0  0  0  0  0  0
    2.8660   -2.7744    0.0000 C   0  0  0  0  0  0  0  0  0  0  0  0
    2.0000   -1.2744    0.0000 C   0  0  0  0  0  0  0  0  0  0  0  0
    2.0000   -2.2744    0.0000 C   0  0  0  0  0  0  0  0  0  0  0  0
    8.5123    1.8815    0.0000 H   0  0  0  0  0  0  0  0  0  0  0  0
   10.0492    2.4704    0.0000 H   0  0  0  0  0  0  0  0  0  0  0  0
    9.8653    3.3997    0.0000 H   0  0  0  0  0  0  0  0  0  0  0  0
    8.9624    3.6948    0.0000 H   0  0  0  0  0  0  0  0  0  0  0  0
    7.5467    2.9140    0.0000 H   0  0  0  0  0  0  0  0  0  0  0  0
    6.9534    2.3817    0.0000 H   0  0  0  0  0  0  0  0  0  0  0  0
    9.7027    1.0316    0.0000 H   0  0  0  0  0  0  0  0  0  0  0  0
   10.5782    0.9841    0.0000 H   0  0  0  0  0  0  0  0  0  0  0  0
   10.6256    1.8597    0.0000 H   0  0  0  0  0  0  0  0  0  0  0  0
    7.4630    0.1855    0.0000 H   0  0  0  0  0  0  0  0  0  0  0  0
    8.3385    0.1381    0.0000 H   0  0  0  0  0  0  0  0  0  0  0  0
    8.3859    1.0136    0.0000 H   0  0  0  0  0  0  0  0  0  0  0  0
    5.9880   -0.4326    0.0000 H   0  0  0  0  0  0  0  0  0  0  0  0
    6.5812    0.0998    0.0000 H   0  0  0  0  0  0  0  0  0  0  0  0
    4.9684    0.6005    0.0000 H   0  0  0  0  0  0  0  0  0  0  0  0
    4.3751    0.0682    0.0000 H   0  0  0  0  0  0  0  0  0  0  0  0
    5.8819   -1.7744    0.0000 H   0  0  0  0  0  0  0  0  0  0  0  0
    4.8709   -3.1684    0.0000 H   0  0  0  0  0  0  0  0  0  0  0  0
    2.8660   -0.1544    0.0000 H   0  0  0  0  0  0  0  0  0  0  0  0
    2.8660   -3.3944    0.0000 H   0  0  0  0  0  0  0  0  0  0  0  0
    1.4631   -0.9644    0.0000 H   0  0  0  0  0  0  0  0  0  0  0  0
    1.4631   -2.5844    0.0000 H   0  0  0  0  0  0  0  0  0  0  0  0
  1  9  2  0  0  0  0
  2  7  1  0  0  0  0
  2  9  1  0  0  0  0
  2 10  1  0  0  0  0
  3 15  1  0  0  0  0
  3 16  1  0  0  0  0
  3 38  1  0  0  0  0
  4  5  1  0  0  0  0
  4  6  1  0  0  0  0
  4  7  1  0  0  0  0
  4 21  1  0  0  0  0
  5  6  1  0  0  0  0
  5  8  1  0  0  0  0
  5 22  1  0  0  0  0
  6 23  1  0  0  0  0
  6 24  1  0  0  0  0
  7 25  1  0  0  0  0
  7 26  1  0  0  0  0
  8 27  1  0  0  0  0
  8 28  1  0  0  0  0
  8 29  1  0  0  0  0
  9 11  1  0  0  0  0
 10 30  1  0  0  0  0
 10 31  1  0  0  0  0
 10 32  1  0  0  0  0
 11 12  1  0  0  0  0
 11 33  1  0  0  0  0
 11 34  1  0  0  0  0
 12 13  1  0  0  0  0
 12 35  1  0  0  0  0
 12 36  1  0  0  0  0
 13 14  1  0  0  0  0
 13 15  2  0  0  0  0
 14 16  1  0  0  0  0
 14 17  2  0  0  0  0
 15 37  1  0  0  0  0
 16 18  2  0  0  0  0
 17 19  1  0  0  0  0
 17 39  1  0  0  0  0
 18 20  1  0  0  0  0
 18 40  1  0  0  0  0
 19 20  2  0  0  0  0
 19 41  1  0  0  0  0
 20 42  1  0  0  0  0
M  END
> <PUBCHEM_COMPOUND_CID>
63860638

> <PUBCHEM_COMPOUND_CANONICALIZED>
1

> <PUBCHEM_CACTVS_COMPLEXITY>
357

> <PUBCHEM_CACTVS_HBOND_ACCEPTOR>
1

> <PUBCHEM_CACTVS_HBOND_DONOR>
1

> <PUBCHEM_CACTVS_ROTATABLE_BOND>
5

> <PUBCHEM_CACTVS_SUBSKEYS>
AAADceB7IAAAAAAAAAAAAAAAGAAAAWAAAAAwAAAAAAAAAFgB8AAAHgAQAAAADQjBngQ+wPPJkACoAzV3VACCgCAxAiAI2aE4ZJgIIPLAkZGEIAhglgDIyAcYicCOgAAAAAACAAAAAAAAAAQAAAAAAAAAAA==

> <PUBCHEM_IUPAC_OPENEYE_NAME>
3-(1H-indol-3-yl)-N-methyl-N-[(2-methylcyclopropyl)methyl]propanamide

> <PUBCHEM_IUPAC_CAS_NAME>
3-(1H-indol-3-yl)-N-methyl-N-[(2-methylcyclopropyl)methyl]propanamide

> <PUBCHEM_IUPAC_NAME>
3-(1H-indol-3-yl)-N-methyl-N-[(2-methylcyclopropyl)methyl]propanamide

> <PUBCHEM_IUPAC_SYSTEMATIC_NAME>
3-(1H-indol-3-yl)-N-methyl-N-[(2-methylcyclopropyl)methyl]propanamide

> <PUBCHEM_IUPAC_TRADITIONAL_NAME>
3-(1H-indol-3-yl)-N-methyl-N-[(2-methylcyclopropyl)methyl]propionamide

> <PUBCHEM_IUPAC_INCHI>
InChI=1S/C17H22N2O/c1-12-9-14(12)11-19(2)17(20)8-7-13-10-18-16-6-4-3-5-15(13)16/h3-6,10,12,14,18H,7-9,11H2,1-2H3

> <PUBCHEM_IUPAC_INCHIKEY>
FDJTUOMTJPAPDO-UHFFFAOYSA-N

> <PUBCHEM_XLOGP3>
2.9

> <PUBCHEM_EXACT_MASS>
270.173213

> <PUBCHEM_MOLECULAR_FORMULA>
C17H22N2O

> <PUBCHEM_MOLECULAR_WEIGHT>
270.36938

> <PUBCHEM_OPENEYE_CAN_SMILES>
CC1CC1CN(C)C(=O)CCC2=CNC3=CC=CC=C32

> <PUBCHEM_OPENEYE_ISO_SMILES>
CC1CC1CN(C)C(=O)CCC2=CNC3=CC=CC=C32

> <PUBCHEM_CACTVS_TPSA>
36.1

> <PUBCHEM_MONOISOTOPIC_WEIGHT>
270.173213

> <PUBCHEM_TOTAL_CHARGE>
0

> <PUBCHEM_HEAVY_ATOM_COUNT>
20

> <PUBCHEM_ATOM_DEF_STEREO_COUNT>
0

> <PUBCHEM_ATOM_UDEF_STEREO_COUNT>
2

> <PUBCHEM_BOND_DEF_STEREO_COUNT>
0

> <PUBCHEM_BOND_UDEF_STEREO_COUNT>
0

> <PUBCHEM_ISOTOPIC_ATOM_COUNT>
0

> <PUBCHEM_COMPONENT_COUNT>
1

> <PUBCHEM_CACTVS_TAUTO_COUNT>
1

> <PUBCHEM_COORDINATE_TYPE>
1
5
255

> <PUBCHEM_BONDANNOTATIONS>
13  14  8
13  15  8
14  16  8
14  17  8
16  18  8
17  19  8
18  20  8
19  20  8
3  15  8
3  16  8
4  7  3
5  8  3

$$$$
63860639
  -OEChem-11301218242D

 36 38  0     1  0  0  0  0  0999 V2000
    5.5981    0.2640    0.0000 O   0  0  0  0  0  0  0  0  0  0  0  0
    3.8660    0.2640    0.0000 N   0  0  0  0  0  0  0  0  0  0  0  0
    6.5443   -3.0407    0.0000 N   0  0  0  0  0  0  0  0  0  0  0  0
    3.0000    1.7640    0.0000 C   0  0  3  0  0  0  0  0  0  0  0  0
    2.5000    2.6300    0.0000 C   0  0  3  0  0  0  0  0  0  0  0  0
    2.0000    1.7640    0.0000 C   0  0  0  0  0  0  0  0  0  0  0  0
    3.8660    1.2640    0.0000 C   0  0  0  0  0  0  0  0  0  0  0  0
    2.5000    3.6300    0.0000 C   0  0  0  0  0  0  0  0  0  0  0  0
    4.7320   -0.2360    0.0000 C   0  0  0  0  0  0  0  0  0  0  0  0
    3.0000   -0.2360    0.0000 C   0  0  0  0  0  0  0  0  0  0  0  0
    4.7320   -1.2360    0.0000 C   0  0  0  0  0  0  0  0  0  0  0  0
    5.5981   -1.7360    0.0000 C   0  0  0  0  0  0  0  0  0  0  0  0
    5.5981   -2.7360    0.0000 C   0  0  0  0  0  0  0  0  0  0  0  0
    3.8660   -1.7360    0.0000 C   0  0  0  0  0  0  0  0  0  0  0  0
    6.5443   -1.4312    0.0000 C   0  0  0  0  0  0  0  0  0  0  0  0
    4.7320   -3.2360    0.0000 C   0  0  0  0  0  0  0  0  0  0  0  0
    3.8660   -2.7360    0.0000 C   0  0  0  0  0  0  0  0  0  0  0  0
    7.1279   -2.2360    0.0000 C   0  0  0  0  0  0  0  0  0  0  0  0
    2.8395    1.1651    0.0000 H   0  0  0  0  0  0  0  0  0  0  0  0
    3.0989    2.7905    0.0000 H   0  0  0  0  0  0  0  0  0  0  0  0
    1.4174    1.9761    0.0000 H   0  0  0  0  0  0  0  0  0  0  0  0
    1.8923    1.1534    0.0000 H   0  0  0  0  0  0  0  0  0  0  0  0
    4.4766    1.1564    0.0000 H   0  0  0  0  0  0  0  0  0  0  0  0
    4.0781    1.8466    0.0000 H   0  0  0  0  0  0  0  0  0  0  0  0
    3.1200    3.6300    0.0000 H   0  0  0  0  0  0  0  0  0  0  0  0
    2.5000    4.2500    0.0000 H   0  0  0  0  0  0  0  0  0  0  0  0
    1.8800    3.6300    0.0000 H   0  0  0  0  0  0  0  0  0  0  0  0
    2.6900    0.3010    0.0000 H   0  0  0  0  0  0  0  0  0  0  0  0
    2.4631   -0.5460    0.0000 H   0  0  0  0  0  0  0  0  0  0  0  0
    3.3100   -0.7729    0.0000 H   0  0  0  0  0  0  0  0  0  0  0  0
    3.3291   -1.4260    0.0000 H   0  0  0  0  0  0  0  0  0  0  0  0
    6.7369   -0.8419    0.0000 H   0  0  0  0  0  0  0  0  0  0  0  0
    4.7320   -3.8560    0.0000 H   0  0  0  0  0  0  0  0  0  0  0  0
    3.3291   -3.0460    0.0000 H   0  0  0  0  0  0  0  0  0  0  0  0
    6.7369   -3.6300    0.0000 H   0  0  0  0  0  0  0  0  0  0  0  0
    7.7479   -2.2360    0.0000 H   0  0  0  0  0  0  0  0  0  0  0  0
  1  9  2  0  0  0  0
  2  7  1  0  0  0  0
  2  9  1  0  0  0  0
  2 10  1  0  0  0  0
  3 13  1  0  0  0  0
  3 18  1  0  0  0  0
  3 35  1  0  0  0  0
  4  5  1  0  0  0  0
  4  6  1  0  0  0  0
  4  7  1  0  0  0  0
  4 19  1  0  0  0  0
  5  6  1  0  0  0  0
  5  8  1  0  0  0  0
  5 20  1  0  0  0  0
  6 21  1  0  0  0  0
  6 22  1  0  0  0  0
  7 23  1  0  0  0  0
  7 24  1  0  0  0  0
  8 25  1  0  0  0  0
  8 26  1  0  0  0  0
  8 27  1  0  0  0  0
  9 11  1  0  0  0  0
 10 28  1  0  0  0  0
 10 29  1  0  0  0  0
 10 30  1  0  0  0  0
 11 12  2  0  0  0  0
 11 14  1  0  0  0  0
 12 13  1  0  0  0  0
 12 15  1  0  0  0  0
 13 16  2  0  0  0  0
 14 17  2  0  0  0  0
 14 31  1  0  0  0  0
 15 18  2  0  0  0  0
 15 32  1  0  0  0  0
 16 17  1  0  0  0  0
 16 33  1  0  0  0  0
 17 34  1  0  0  0  0
 18 36  1  0  0  0  0
M  END
> <PUBCHEM_COMPOUND_CID>
63860639

> <PUBCHEM_COMPOUND_CANONICALIZED>
1

> <PUBCHEM_CACTVS_COMPLEXITY>
331

> <PUBCHEM_CACTVS_HBOND_ACCEPTOR>
1

> <PUBCHEM_CACTVS_HBOND_DONOR>
1

> <PUBCHEM_CACTVS_ROTATABLE_BOND>
3

> <PUBCHEM_CACTVS_SUBSKEYS>
AAADceBzIAAAAAAAAAAAAAAAGAAAAWAAAAAwAAAAAAAAAFgB8AAAHgAQAAAADQjBngQ+wPPJkACoAzV3VACCgCA1AiAI2aE4ZNgIIPLAlZGEIQhglgDIyYcciYCOgAAAQAASAAAAAACAACQAAAAAAAAAAA==

> <PUBCHEM_IUPAC_OPENEYE_NAME>
N-methyl-N-[(2-methylcyclopropyl)methyl]-1H-indole-4-carboxamide

> <PUBCHEM_IUPAC_CAS_NAME>
N-methyl-N-[(2-methylcyclopropyl)methyl]-1H-indole-4-carboxamide

> <PUBCHEM_IUPAC_NAME>
N-methyl-N-[(2-methylcyclopropyl)methyl]-1H-indole-4-carboxamide

> <PUBCHEM_IUPAC_SYSTEMATIC_NAME>
N-methyl-N-[(2-methylcyclopropyl)methyl]-1H-indole-4-carboxamide

> <PUBCHEM_IUPAC_TRADITIONAL_NAME>
N-methyl-N-[(2-methylcyclopropyl)methyl]-1H-indole-4-carboxamide

> <PUBCHEM_IUPAC_INCHI>
InChI=1S/C15H18N2O/c1-10-8-11(10)9-17(2)15(18)13-4-3-5-14-12(13)6-7-16-14/h3-7,10-11,16H,8-9H2,1-2H3

> <PUBCHEM_IUPAC_INCHIKEY>
AXNJLOARCDXABE-UHFFFAOYSA-N

> <PUBCHEM_XLOGP3>
2.4

> <PUBCHEM_EXACT_MASS>
242.141913

> <PUBCHEM_MOLECULAR_FORMULA>
C15H18N2O

> <PUBCHEM_MOLECULAR_WEIGHT>
242.31622

> <PUBCHEM_OPENEYE_CAN_SMILES>
CC1CC1CN(C)C(=O)C2=C3C=CNC3=CC=C2

> <PUBCHEM_OPENEYE_ISO_SMILES>
CC1CC1CN(C)C(=O)C2=C3C=CNC3=CC=C2

> <PUBCHEM_CACTVS_TPSA>
36.1

> <PUBCHEM_MONOISOTOPIC_WEIGHT>
242.141913

> <PUBCHEM_TOTAL_CHARGE>
0

> <PUBCHEM_HEAVY_ATOM_COUNT>
18

> <PUBCHEM_ATOM_DEF_STEREO_COUNT>
0

> <PUBCHEM_ATOM_UDEF_STEREO_COUNT>
2

> <PUBCHEM_BOND_DEF_STEREO_COUNT>
0

> <PUBCHEM_BOND_UDEF_STEREO_COUNT>
0

> <PUBCHEM_ISOTOPIC_ATOM_COUNT>
0

> <PUBCHEM_COMPONENT_COUNT>
1

> <PUBCHEM_CACTVS_TAUTO_COUNT>
3

> <PUBCHEM_COORDINATE_TYPE>
1
5
255

> <PUBCHEM_BONDANNOTATIONS>
11  12  8
11  14  8
12  13  8
12  15  8
13  16  8
14  17  8
15  18  8
16  17  8
3  13  8
3  18  8
4  7  3
5  8  3

$$$$
63860790
  -OEChem-11301218242D

 36 38  0     1  0  0  0  0  0999 V2000
    4.3211    1.3036    0.0000 O   0  0  0  0  0  0  0  0  0  0  0  0
    5.9674    0.7655    0.0000 N   0  0  0  0  0  0  0  0  0  0  0  0
    4.6783   -2.0007    0.0000 N   0  0  0  0  0  0  0  0  0  0  0  0
    7.2566    1.9222    0.0000 C   0  0  3  0  0  0  0  0  0  0  0  0
    8.2071    1.6116    0.0000 C   0  0  3  0  0  0  0  0  0  0  0  0
    8.0009    2.5901    0.0000 C   0  0  0  0  0  0  0  0  0  0  0  0
    6.2781    1.7160    0.0000 C   0  0  0  0  0  0  0  0  0  0  0  0
    8.8750    0.8672    0.0000 C   0  0  0  0  0  0  0  0  0  0  0  0
    4.9889    0.5593    0.0000 C   0  0  0  0  0  0  0  0  0  0  0  0
    6.6353    0.0212    0.0000 C   0  0  0  0  0  0  0  0  0  0  0  0
    4.6783   -0.3913    0.0000 C   0  0  0  0  0  0  0  0  0  0  0  0
    3.7320   -0.6960    0.0000 C   0  0  0  0  0  0  0  0  0  0  0  0
    5.2619   -1.1960    0.0000 C   0  0  0  0  0  0  0  0  0  0  0  0
    3.7320   -1.6960    0.0000 C   0  0  0  0  0  0  0  0  0  0  0  0
    2.8660   -0.1960    0.0000 C   0  0  0  0  0  0  0  0  0  0  0  0
    2.8660   -2.1960    0.0000 C   0  0  0  0  0  0  0  0  0  0  0  0
    2.0000   -0.6960    0.0000 C   0  0  0  0  0  0  0  0  0  0  0  0
    2.0000   -1.6960    0.0000 C   0  0  0  0  0  0  0  0  0  0  0  0
    6.9761    2.4751    0.0000 H   0  0  0  0  0  0  0  0  0  0  0  0
    7.8686    1.0922    0.0000 H   0  0  0  0  0  0  0  0  0  0  0  0
    8.5762    2.8213    0.0000 H   0  0  0  0  0  0  0  0  0  0  0  0
    7.6733    3.1164    0.0000 H   0  0  0  0  0  0  0  0  0  0  0  0
    6.2575    2.3356    0.0000 H   0  0  0  0  0  0  0  0  0  0  0  0
    5.6643    1.8033    0.0000 H   0  0  0  0  0  0  0  0  0  0  0  0
    8.4135    0.4532    0.0000 H   0  0  0  0  0  0  0  0  0  0  0  0
    9.2890    0.4058    0.0000 H   0  0  0  0  0  0  0  0  0  0  0  0
    9.3364    1.2813    0.0000 H   0  0  0  0  0  0  0  0  0  0  0  0
    6.1738   -0.3929    0.0000 H   0  0  0  0  0  0  0  0  0  0  0  0
    7.0494   -0.4403    0.0000 H   0  0  0  0  0  0  0  0  0  0  0  0
    7.0968    0.4352    0.0000 H   0  0  0  0  0  0  0  0  0  0  0  0
    5.8819   -1.1960    0.0000 H   0  0  0  0  0  0  0  0  0  0  0  0
    4.8709   -2.5901    0.0000 H   0  0  0  0  0  0  0  0  0  0  0  0
    2.8660    0.4240    0.0000 H   0  0  0  0  0  0  0  0  0  0  0  0
    2.8660   -2.8160    0.0000 H   0  0  0  0  0  0  0  0  0  0  0  0
    1.4631   -0.3860    0.0000 H   0  0  0  0  0  0  0  0  0  0  0  0
    1.4631   -2.0060    0.0000 H   0  0  0  0  0  0  0  0  0  0  0  0
  1  9  2  0  0  0  0
  2  7  1  0  0  0  0
  2  9  1  0  0  0  0
  2 10  1  0  0  0  0
  3 13  1  0  0  0  0
  3 14  1  0  0  0  0
  3 32  1  0  0  0  0
  4  5  1  0  0  0  0
  4  6  1  0  0  0  0
  4  7  1  0  0  0  0
  4 19  1  0  0  0  0
  5  6  1  0  0  0  0
  5  8  1  0  0  0  0
  5 20  1  0  0  0  0
  6 21  1  0  0  0  0
  6 22  1  0  0  0  0
  7 23  1  0  0  0  0
  7 24  1  0  0  0  0
  8 25  1  0  0  0  0
  8 26  1  0  0  0  0
  8 27  1  0  0  0  0
  9 11  1  0  0  0  0
 10 28  1  0  0  0  0
 10 29  1  0  0  0  0
 10 30  1  0  0  0  0
 11 12  1  0  0  0  0
 11 13  2  0  0  0  0
 12 14  1  0  0  0  0
 12 15  2  0  0  0  0
 13 31  1  0  0  0  0
 14 16  2  0  0  0  0
 15 17  1  0  0  0  0
 15 33  1  0  0  0  0
 16 18  1  0  0  0  0
 16 34  1  0  0  0  0
 17 18  2  0  0  0  0
 17 35  1  0  0  0  0
 18 36  1  0  0  0  0
M  END
> <PUBCHEM_COMPOUND_CID>
63860790

> <PUBCHEM_COMPOUND_CANONICALIZED>
1

> <PUBCHEM_CACTVS_COMPLEXITY>
331

> <PUBCHEM_CACTVS_HBOND_ACCEPTOR>
1

> <PUBCHEM_CACTVS_HBOND_DONOR>
1

> <PUBCHEM_CACTVS_ROTATABLE_BOND>
3

> <PUBCHEM_CACTVS_SUBSKEYS>
AAADceBzIAAAAAAAAAAAAAAAGAAAAWAAAAAwAAAAAAAAAFgB8AAAHgAQAAAADQjBngQ+wPPJkACoAzV3VACCgCA1AiAI2aE4ZNgIIPrA1ZGEIYhglgDIyccciMCOgAAAAAACAAAAAAAAAAQAAAAAAAAAAA==

> <PUBCHEM_IUPAC_OPENEYE_NAME>
N-methyl-N-[(2-methylcyclopropyl)methyl]-1H-indole-3-carboxamide

> <PUBCHEM_IUPAC_CAS_NAME>
N-methyl-N-[(2-methylcyclopropyl)methyl]-1H-indole-3-carboxamide

> <PUBCHEM_IUPAC_NAME>
N-methyl-N-[(2-methylcyclopropyl)methyl]-1H-indole-3-carboxamide

> <PUBCHEM_IUPAC_SYSTEMATIC_NAME>
N-methyl-N-[(2-methylcyclopropyl)methyl]-1H-indole-3-carboxamide

> <PUBCHEM_IUPAC_TRADITIONAL_NAME>
N-methyl-N-[(2-methylcyclopropyl)methyl]-1H-indole-3-carboxamide

> <PUBCHEM_IUPAC_INCHI>
InChI=1S/C15H18N2O/c1-10-7-11(10)9-17(2)15(18)13-8-16-14-6-4-3-5-12(13)14/h3-6,8,10-11,16H,7,9H2,1-2H3

> <PUBCHEM_IUPAC_INCHIKEY>
LQWHZYSZTFEBLO-UHFFFAOYSA-N

> <PUBCHEM_XLOGP3>
3.1

> <PUBCHEM_EXACT_MASS>
242.141913

> <PUBCHEM_MOLECULAR_FORMULA>
C15H18N2O

> <PUBCHEM_MOLECULAR_WEIGHT>
242.31622

> <PUBCHEM_OPENEYE_CAN_SMILES>
CC1CC1CN(C)C(=O)C2=CNC3=CC=CC=C32

> <PUBCHEM_OPENEYE_ISO_SMILES>
CC1CC1CN(C)C(=O)C2=CNC3=CC=CC=C32

> <PUBCHEM_CACTVS_TPSA>
36.1

> <PUBCHEM_MONOISOTOPIC_WEIGHT>
242.141913

> <PUBCHEM_TOTAL_CHARGE>
0

> <PUBCHEM_HEAVY_ATOM_COUNT>
18

> <PUBCHEM_ATOM_DEF_STEREO_COUNT>
0

> <PUBCHEM_ATOM_UDEF_STEREO_COUNT>
2

> <PUBCHEM_BOND_DEF_STEREO_COUNT>
0

> <PUBCHEM_BOND_UDEF_STEREO_COUNT>
0

> <PUBCHEM_ISOTOPIC_ATOM_COUNT>
0

> <PUBCHEM_COMPONENT_COUNT>
1

> <PUBCHEM_CACTVS_TAUTO_COUNT>
3

> <PUBCHEM_COORDINATE_TYPE>
1
5
255

> <PUBCHEM_BONDANNOTATIONS>
11  12  8
11  13  8
12  14  8
12  15  8
14  16  8
15  17  8
16  18  8
17  18  8
3  13  8
3  14  8
4  7  3
5  8  3

$$$$
