39443941
  -OEChem-06121304432D

 35 36  0     0  0  0  0  0  0999 V2000
    2.8660   -1.2500    0.0000 Cl  0  0  0  0  0  0  0  0  0  0  0  0
    2.0000    0.2500    0.0000 Cl  0  0  0  0  0  0  0  0  0  0  0  0
    3.7320    1.2500    0.0000 O   0  0  0  0  0  0  0  0  0  0  0  0
    4.5981   -0.2500    0.0000 N   0  0  0  0  0  0  0  0  0  0  0  0
    5.4641    0.2500    0.0000 C   0  0  0  0  0  0  0  0  0  0  0  0
    5.4641    1.2500    0.0000 C   0  0  0  0  0  0  0  0  0  0  0  0
    6.3301    1.7500    0.0000 C   0  0  0  0  0  0  0  0  0  0  0  0
    4.5981   -1.2500    0.0000 C   0  0  0  0  0  0  0  0  0  0  0  0
    4.5981    1.7500    0.0000 C   0  0  0  0  0  0  0  0  0  0  0  0
    3.7320    0.2500    0.0000 C   0  0  0  0  0  0  0  0  0  0  0  0
    6.3301    2.7500    0.0000 C   0  0  0  0  0  0  0  0  0  0  0  0
    7.1962    1.2500    0.0000 C   0  0  0  0  0  0  0  0  0  0  0  0
    3.7320   -1.7500    0.0000 C   0  0  0  0  0  0  0  0  0  0  0  0
    5.4641   -1.7500    0.0000 C   0  0  0  0  0  0  0  0  0  0  0  0
    4.5981    2.7500    0.0000 C   0  0  0  0  0  0  0  0  0  0  0  0
    5.4641    3.2500    0.0000 C   0  0  0  0  0  0  0  0  0  0  0  0
    2.8660   -0.2500    0.0000 C   0  0  0  0  0  0  0  0  0  0  0  0
    3.7320   -2.7500    0.0000 C   0  0  0  0  0  0  0  0  0  0  0  0
    5.4641   -2.7500    0.0000 C   0  0  0  0  0  0  0  0  0  0  0  0
    4.5981   -3.2500    0.0000 C   0  0  0  0  0  0  0  0  0  0  0  0
    5.6762   -0.3326    0.0000 H   0  0  0  0  0  0  0  0  0  0  0  0
    6.0747    0.3577    0.0000 H   0  0  0  0  0  0  0  0  0  0  0  0
    4.0611    1.4400    0.0000 H   0  0  0  0  0  0  0  0  0  0  0  0
    6.8671    3.0600    0.0000 H   0  0  0  0  0  0  0  0  0  0  0  0
    6.8862    0.7131    0.0000 H   0  0  0  0  0  0  0  0  0  0  0  0
    7.7331    0.9400    0.0000 H   0  0  0  0  0  0  0  0  0  0  0  0
    7.5062    1.7869    0.0000 H   0  0  0  0  0  0  0  0  0  0  0  0
    6.0010   -1.4400    0.0000 H   0  0  0  0  0  0  0  0  0  0  0  0
    4.0611    3.0600    0.0000 H   0  0  0  0  0  0  0  0  0  0  0  0
    5.4641    3.8700    0.0000 H   0  0  0  0  0  0  0  0  0  0  0  0
    2.4675   -0.7249    0.0000 H   0  0  0  0  0  0  0  0  0  0  0  0
    3.2646   -0.7249    0.0000 H   0  0  0  0  0  0  0  0  0  0  0  0
    3.1951   -3.0600    0.0000 H   0  0  0  0  0  0  0  0  0  0  0  0
    6.0010   -3.0600    0.0000 H   0  0  0  0  0  0  0  0  0  0  0  0
    4.5981   -3.8700    0.0000 H   0  0  0  0  0  0  0  0  0  0  0  0
  1 13  1  0  0  0  0
  2 17  1  0  0  0  0
  3 10  2  0  0  0  0
  4  5  1  0  0  0  0
  4  8  1  0  0  0  0
  4 10  1  0  0  0  0
  5  6  1  0  0  0  0
  5 21  1  0  0  0  0
  5 22  1  0  0  0  0
  6  7  1  0  0  0  0
  6  9  2  0  0  0  0
  7 11  2  0  0  0  0
  7 12  1  0  0  0  0
  8 13  1  0  0  0  0
  8 14  2  0  0  0  0
  9 15  1  0  0  0  0
  9 23  1  0  0  0  0
 10 17  1  0  0  0  0
 11 16  1  0  0  0  0
 11 24  1  0  0  0  0
 12 25  1  0  0  0  0
 12 26  1  0  0  0  0
 12 27  1  0  0  0  0
 13 18  2  0  0  0  0
 14 19  1  0  0  0  0
 14 28  1  0  0  0  0
 15 16  2  0  0  0  0
 15 29  1  0  0  0  0
 16 30  1  0  0  0  0
 17 31  1  0  0  0  0
 17 32  1  0  0  0  0
 18 20  1  0  0  0  0
 18 33  1  0  0  0  0
 19 20  2  0  0  0  0
 19 34  1  0  0  0  0
 20 35  1  0  0  0  0
M  END
> <PUBCHEM_COMPOUND_CID>
39443941

> <PUBCHEM_COMPOUND_CANONICALIZED>
1

> <PUBCHEM_CACTVS_COMPLEXITY>
324

> <PUBCHEM_CACTVS_HBOND_ACCEPTOR>
1

> <PUBCHEM_CACTVS_HBOND_DONOR>
0

> <PUBCHEM_CACTVS_ROTATABLE_BOND>
4

> <PUBCHEM_CACTVS_SUBSKEYS>
AAADccB6IAAGAAAAAAAAAAAAAAAAAAAAAAAwYAAAAAAAAAABQAAAHgIAAAAADAvBmGQywIMAAACIAiVSUACCAAAhBwAIiAAIZohIICLBk5HEIAhghgDIyAcQgIAOgAAAAAAQABAAAAAAACAAIAAAAAAAAA==

> <PUBCHEM_IUPAC_OPENEYE_NAME>
2-chloro-N-(2-chlorophenyl)-N-(o-tolylmethyl)acetamide

> <PUBCHEM_IUPAC_CAS_NAME>
2-chloro-N-(2-chlorophenyl)-N-[(2-methylphenyl)methyl]acetamide

> <PUBCHEM_IUPAC_NAME>
2-chloro-N-(2-chlorophenyl)-N-[(2-methylphenyl)methyl]acetamide

> <PUBCHEM_IUPAC_SYSTEMATIC_NAME>
2-chloranyl-N-(2-chlorophenyl)-N-[(2-methylphenyl)methyl]ethanamide

> <PUBCHEM_IUPAC_TRADITIONAL_NAME>
2-chloro-N-(2-chlorophenyl)-N-(2-methylbenzyl)acetamide

> <PUBCHEM_IUPAC_INCHI>
InChI=1S/C16H15Cl2NO/c1-12-6-2-3-7-13(12)11-19(16(20)10-17)15-9-5-4-8-14(15)18/h2-9H,10-11H2,1H3

> <PUBCHEM_IUPAC_INCHIKEY>
SHPVRUJKRUWWKP-UHFFFAOYSA-N

> <PUBCHEM_XLOGP3>
3.9

> <PUBCHEM_EXACT_MASS>
307.053069

> <PUBCHEM_MOLECULAR_FORMULA>
C16H15Cl2NO

> <PUBCHEM_MOLECULAR_WEIGHT>
308.2024

> <PUBCHEM_OPENEYE_CAN_SMILES>
CC1=CC=CC=C1CN(C2=CC=CC=C2Cl)C(=O)CCl

> <PUBCHEM_OPENEYE_ISO_SMILES>
CC1=CC=CC=C1CN(C2=CC=CC=C2Cl)C(=O)CCl

> <PUBCHEM_CACTVS_TPSA>
20.3

> <PUBCHEM_MONOISOTOPIC_WEIGHT>
307.053069

> <PUBCHEM_TOTAL_CHARGE>
0

> <PUBCHEM_HEAVY_ATOM_COUNT>
20

> <PUBCHEM_ATOM_DEF_STEREO_COUNT>
0

> <PUBCHEM_ATOM_UDEF_STEREO_COUNT>
0

> <PUBCHEM_BOND_DEF_STEREO_COUNT>
0

> <PUBCHEM_BOND_UDEF_STEREO_COUNT>
0

> <PUBCHEM_ISOTOPIC_ATOM_COUNT>
0

> <PUBCHEM_COMPONENT_COUNT>
1

> <PUBCHEM_CACTVS_TAUTO_COUNT>
1

> <PUBCHEM_COORDINATE_TYPE>
1
5
255

> <PUBCHEM_BONDANNOTATIONS>
11  16  8
13  18  8
14  19  8
15  16  8
18  20  8
19  20  8
6  7  8
6  9  8
7  11  8
8  13  8
8  14  8
9  15  8

$$$$
39443943
  -OEChem-06121304432D

 35 36  0     0  0  0  0  0  0999 V2000
    2.8660   -1.2500    0.0000 Cl  0  0  0  0  0  0  0  0  0  0  0  0
    2.0000    0.2500    0.0000 Cl  0  0  0  0  0  0  0  0  0  0  0  0
    3.7320    1.2500    0.0000 O   0  0  0  0  0  0  0  0  0  0  0  0
    4.5981   -0.2500    0.0000 N   0  0  0  0  0  0  0  0  0  0  0  0
    5.4641    0.2500    0.0000 C   0  0  0  0  0  0  0  0  0  0  0  0
    5.4641    1.2500    0.0000 C   0  0  0  0  0  0  0  0  0  0  0  0
    4.5981   -1.2500    0.0000 C   0  0  0  0  0  0  0  0  0  0  0  0
    6.3301    1.7500    0.0000 C   0  0  0  0  0  0  0  0  0  0  0  0
    4.5981    1.7500    0.0000 C   0  0  0  0  0  0  0  0  0  0  0  0
    6.3301    2.7500    0.0000 C   0  0  0  0  0  0  0  0  0  0  0  0
    3.7320    0.2500    0.0000 C   0  0  0  0  0  0  0  0  0  0  0  0
    3.7320   -1.7500    0.0000 C   0  0  0  0  0  0  0  0  0  0  0  0
    5.4641   -1.7500    0.0000 C   0  0  0  0  0  0  0  0  0  0  0  0
    4.5981    2.7500    0.0000 C   0  0  0  0  0  0  0  0  0  0  0  0
    5.4641    3.2500    0.0000 C   0  0  0  0  0  0  0  0  0  0  0  0
    7.1962    3.2500    0.0000 C   0  0  0  0  0  0  0  0  0  0  0  0
    2.8660   -0.2500    0.0000 C   0  0  0  0  0  0  0  0  0  0  0  0
    3.7320   -2.7500    0.0000 C   0  0  0  0  0  0  0  0  0  0  0  0
    5.4641   -2.7500    0.0000 C   0  0  0  0  0  0  0  0  0  0  0  0
    4.5981   -3.2500    0.0000 C   0  0  0  0  0  0  0  0  0  0  0  0
    5.6762   -0.3326    0.0000 H   0  0  0  0  0  0  0  0  0  0  0  0
    6.0747    0.3577    0.0000 H   0  0  0  0  0  0  0  0  0  0  0  0
    6.8671    1.4400    0.0000 H   0  0  0  0  0  0  0  0  0  0  0  0
    4.0611    1.4400    0.0000 H   0  0  0  0  0  0  0  0  0  0  0  0
    6.0010   -1.4400    0.0000 H   0  0  0  0  0  0  0  0  0  0  0  0
    4.0611    3.0600    0.0000 H   0  0  0  0  0  0  0  0  0  0  0  0
    5.4641    3.8700    0.0000 H   0  0  0  0  0  0  0  0  0  0  0  0
    7.5062    2.7131    0.0000 H   0  0  0  0  0  0  0  0  0  0  0  0
    7.7331    3.5600    0.0000 H   0  0  0  0  0  0  0  0  0  0  0  0
    6.8862    3.7869    0.0000 H   0  0  0  0  0  0  0  0  0  0  0  0
    2.4675   -0.7249    0.0000 H   0  0  0  0  0  0  0  0  0  0  0  0
    3.2646   -0.7249    0.0000 H   0  0  0  0  0  0  0  0  0  0  0  0
    3.1951   -3.0600    0.0000 H   0  0  0  0  0  0  0  0  0  0  0  0
    6.0010   -3.0600    0.0000 H   0  0  0  0  0  0  0  0  0  0  0  0
    4.5981   -3.8700    0.0000 H   0  0  0  0  0  0  0  0  0  0  0  0
  1 12  1  0  0  0  0
  2 17  1  0  0  0  0
  3 11  2  0  0  0  0
  4  5  1  0  0  0  0
  4  7  1  0  0  0  0
  4 11  1  0  0  0  0
  5  6  1  0  0  0  0
  5 21  1  0  0  0  0
  5 22  1  0  0  0  0
  6  8  1  0  0  0  0
  6  9  2  0  0  0  0
  7 12  1  0  0  0  0
  7 13  2  0  0  0  0
  8 10  2  0  0  0  0
  8 23  1  0  0  0  0
  9 14  1  0  0  0  0
  9 24  1  0  0  0  0
 10 15  1  0  0  0  0
 10 16  1  0  0  0  0
 11 17  1  0  0  0  0
 12 18  2  0  0  0  0
 13 19  1  0  0  0  0
 13 25  1  0  0  0  0
 14 15  2  0  0  0  0
 14 26  1  0  0  0  0
 15 27  1  0  0  0  0
 16 28  1  0  0  0  0
 16 29  1  0  0  0  0
 16 30  1  0  0  0  0
 17 31  1  0  0  0  0
 17 32  1  0  0  0  0
 18 20  1  0  0  0  0
 18 33  1  0  0  0  0
 19 20  2  0  0  0  0
 19 34  1  0  0  0  0
 20 35  1  0  0  0  0
M  END
> <PUBCHEM_COMPOUND_CID>
39443943

> <PUBCHEM_COMPOUND_CANONICALIZED>
1

> <PUBCHEM_CACTVS_COMPLEXITY>
324

> <PUBCHEM_CACTVS_HBOND_ACCEPTOR>
1

> <PUBCHEM_CACTVS_HBOND_DONOR>
0

> <PUBCHEM_CACTVS_ROTATABLE_BOND>
4

> <PUBCHEM_CACTVS_SUBSKEYS>
AAADccB6IAAGAAAAAAAAAAAAAAAAAAAAAAAwYAAAAAAAAAABQAAAHgIAAAAADAvBmGQywIMAAACIAiVSUACCAAAhBwAIiAAIZohIICLBk5HEIAhghgDIyAcQgEAOAAACAAAAABAAAAQAAAAAIAAAAAAAAA==

> <PUBCHEM_IUPAC_OPENEYE_NAME>
2-chloro-N-(2-chlorophenyl)-N-(m-tolylmethyl)acetamide

> <PUBCHEM_IUPAC_CAS_NAME>
2-chloro-N-(2-chlorophenyl)-N-[(3-methylphenyl)methyl]acetamide

> <PUBCHEM_IUPAC_NAME>
2-chloro-N-(2-chlorophenyl)-N-[(3-methylphenyl)methyl]acetamide

> <PUBCHEM_IUPAC_SYSTEMATIC_NAME>
2-chloranyl-N-(2-chlorophenyl)-N-[(3-methylphenyl)methyl]ethanamide

> <PUBCHEM_IUPAC_TRADITIONAL_NAME>
2-chloro-N-(2-chlorophenyl)-N-(3-methylbenzyl)acetamide

> <PUBCHEM_IUPAC_INCHI>
InChI=1S/C16H15Cl2NO/c1-12-5-4-6-13(9-12)11-19(16(20)10-17)15-8-3-2-7-14(15)18/h2-9H,10-11H2,1H3

> <PUBCHEM_IUPAC_INCHIKEY>
WZNQFWKEGRCJSU-UHFFFAOYSA-N

> <PUBCHEM_XLOGP3>
3.9

> <PUBCHEM_EXACT_MASS>
307.053069

> <PUBCHEM_MOLECULAR_FORMULA>
C16H15Cl2NO

> <PUBCHEM_MOLECULAR_WEIGHT>
308.2024

> <PUBCHEM_OPENEYE_CAN_SMILES>
CC1=CC(=CC=C1)CN(C2=CC=CC=C2Cl)C(=O)CCl

> <PUBCHEM_OPENEYE_ISO_SMILES>
CC1=CC(=CC=C1)CN(C2=CC=CC=C2Cl)C(=O)CCl

> <PUBCHEM_CACTVS_TPSA>
20.3

> <PUBCHEM_MONOISOTOPIC_WEIGHT>
307.053069

> <PUBCHEM_TOTAL_CHARGE>
0

> <PUBCHEM_HEAVY_ATOM_COUNT>
20

> <PUBCHEM_ATOM_DEF_STEREO_COUNT>
0

> <PUBCHEM_ATOM_UDEF_STEREO_COUNT>
0

> <PUBCHEM_BOND_DEF_STEREO_COUNT>
0

> <PUBCHEM_BOND_UDEF_STEREO_COUNT>
0

> <PUBCHEM_ISOTOPIC_ATOM_COUNT>
0

> <PUBCHEM_COMPONENT_COUNT>
1

> <PUBCHEM_CACTVS_TAUTO_COUNT>
1

> <PUBCHEM_COORDINATE_TYPE>
1
5
255

> <PUBCHEM_BONDANNOTATIONS>
10  15  8
12  18  8
13  19  8
14  15  8
18  20  8
19  20  8
6  8  8
6  9  8
7  12  8
7  13  8
8  10  8
9  14  8

$$$$
39443947
  -OEChem-06121304432D

 35 36  0     0  0  0  0  0  0999 V2000
    2.8660   -1.7500    0.0000 Cl  0  0  0  0  0  0  0  0  0  0  0  0
    2.0000   -0.2500    0.0000 Cl  0  0  0  0  0  0  0  0  0  0  0  0
    3.7320    0.7500    0.0000 O   0  0  0  0  0  0  0  0  0  0  0  0
    4.5981   -0.7500    0.0000 N   0  0  0  0  0  0  0  0  0  0  0  0
    5.4641   -0.2500    0.0000 C   0  0  0  0  0  0  0  0  0  0  0  0
    5.4641    0.7500    0.0000 C   0  0  0  0  0  0  0  0  0  0  0  0
    4.5981   -1.7500    0.0000 C   0  0  0  0  0  0  0  0  0  0  0  0
    6.3301    1.2500    0.0000 C   0  0  0  0  0  0  0  0  0  0  0  0
    4.5981    1.2500    0.0000 C   0  0  0  0  0  0  0  0  0  0  0  0
    3.7320   -0.2500    0.0000 C   0  0  0  0  0  0  0  0  0  0  0  0
    5.4641    2.7500    0.0000 C   0  0  0  0  0  0  0  0  0  0  0  0
    6.3301    2.2500    0.0000 C   0  0  0  0  0  0  0  0  0  0  0  0
    4.5981    2.2500    0.0000 C   0  0  0  0  0  0  0  0  0  0  0  0
    3.7320   -2.2500    0.0000 C   0  0  0  0  0  0  0  0  0  0  0  0
    5.4641   -2.2500    0.0000 C   0  0  0  0  0  0  0  0  0  0  0  0
    2.8660   -0.7500    0.0000 C   0  0  0  0  0  0  0  0  0  0  0  0
    3.7320   -3.2500    0.0000 C   0  0  0  0  0  0  0  0  0  0  0  0
    5.4641   -3.2500    0.0000 C   0  0  0  0  0  0  0  0  0  0  0  0
    5.4641    3.7500    0.0000 C   0  0  0  0  0  0  0  0  0  0  0  0
    4.5981   -3.7500    0.0000 C   0  0  0  0  0  0  0  0  0  0  0  0
    5.6762   -0.8326    0.0000 H   0  0  0  0  0  0  0  0  0  0  0  0
    6.0747   -0.1423    0.0000 H   0  0  0  0  0  0  0  0  0  0  0  0
    6.8671    0.9400    0.0000 H   0  0  0  0  0  0  0  0  0  0  0  0
    4.0611    0.9400    0.0000 H   0  0  0  0  0  0  0  0  0  0  0  0
    6.8671    2.5600    0.0000 H   0  0  0  0  0  0  0  0  0  0  0  0
    4.0611    2.5600    0.0000 H   0  0  0  0  0  0  0  0  0  0  0  0
    6.0010   -1.9400    0.0000 H   0  0  0  0  0  0  0  0  0  0  0  0
    2.4675   -1.2250    0.0000 H   0  0  0  0  0  0  0  0  0  0  0  0
    3.2646   -1.2250    0.0000 H   0  0  0  0  0  0  0  0  0  0  0  0
    3.1951   -3.5600    0.0000 H   0  0  0  0  0  0  0  0  0  0  0  0
    6.0010   -3.5600    0.0000 H   0  0  0  0  0  0  0  0  0  0  0  0
    6.0841    3.7500    0.0000 H   0  0  0  0  0  0  0  0  0  0  0  0
    5.4641    4.3700    0.0000 H   0  0  0  0  0  0  0  0  0  0  0  0
    4.8441    3.7500    0.0000 H   0  0  0  0  0  0  0  0  0  0  0  0
    4.5981   -4.3700    0.0000 H   0  0  0  0  0  0  0  0  0  0  0  0
  1 14  1  0  0  0  0
  2 16  1  0  0  0  0
  3 10  2  0  0  0  0
  4  5  1  0  0  0  0
  4  7  1  0  0  0  0
  4 10  1  0  0  0  0
  5  6  1  0  0  0  0
  5 21  1  0  0  0  0
  5 22  1  0  0  0  0
  6  8  2  0  0  0  0
  6  9  1  0  0  0  0
  7 14  1  0  0  0  0
  7 15  2  0  0  0  0
  8 12  1  0  0  0  0
  8 23  1  0  0  0  0
  9 13  2  0  0  0  0
  9 24  1  0  0  0  0
 10 16  1  0  0  0  0
 11 12  2  0  0  0  0
 11 13  1  0  0  0  0
 11 19  1  0  0  0  0
 12 25  1  0  0  0  0
 13 26  1  0  0  0  0
 14 17  2  0  0  0  0
 15 18  1  0  0  0  0
 15 27  1  0  0  0  0
 16 28  1  0  0  0  0
 16 29  1  0  0  0  0
 17 20  1  0  0  0  0
 17 30  1  0  0  0  0
 18 20  2  0  0  0  0
 18 31  1  0  0  0  0
 19 32  1  0  0  0  0
 19 33  1  0  0  0  0
 19 34  1  0  0  0  0
 20 35  1  0  0  0  0
M  END
> <PUBCHEM_COMPOUND_CID>
39443947

> <PUBCHEM_COMPOUND_CANONICALIZED>
1

> <PUBCHEM_CACTVS_COMPLEXITY>
316

> <PUBCHEM_CACTVS_HBOND_ACCEPTOR>
1

> <PUBCHEM_CACTVS_HBOND_DONOR>
0

> <PUBCHEM_CACTVS_ROTATABLE_BOND>
4

> <PUBCHEM_CACTVS_SUBSKEYS>
AAADccB6IAAGAAAAAAAAAAAAAAAAAAAAAAAwYAAAAAAAAAABQAAAHgIAAAAADAvBmGQywIMAAACIAiVSUACCAAAhBwAIiAAIZohIICLBk5HEIAhghgDIyAcQgAAOQAAAAAAAABCAAAAAAAAAIAAAAAAAAA==

> <PUBCHEM_IUPAC_OPENEYE_NAME>
2-chloro-N-(2-chlorophenyl)-N-(p-tolylmethyl)acetamide

> <PUBCHEM_IUPAC_CAS_NAME>
2-chloro-N-(2-chlorophenyl)-N-[(4-methylphenyl)methyl]acetamide

> <PUBCHEM_IUPAC_NAME>
2-chloro-N-(2-chlorophenyl)-N-[(4-methylphenyl)methyl]acetamide

> <PUBCHEM_IUPAC_SYSTEMATIC_NAME>
2-chloranyl-N-(2-chlorophenyl)-N-[(4-methylphenyl)methyl]ethanamide

> <PUBCHEM_IUPAC_TRADITIONAL_NAME>
2-chloro-N-(2-chlorophenyl)-N-(4-methylbenzyl)acetamide

> <PUBCHEM_IUPAC_INCHI>
InChI=1S/C16H15Cl2NO/c1-12-6-8-13(9-7-12)11-19(16(20)10-17)15-5-3-2-4-14(15)18/h2-9H,10-11H2,1H3

> <PUBCHEM_IUPAC_INCHIKEY>
YGUWZPXCCGQZEZ-UHFFFAOYSA-N

> <PUBCHEM_XLOGP3>
3.9

> <PUBCHEM_EXACT_MASS>
307.053069

> <PUBCHEM_MOLECULAR_FORMULA>
C16H15Cl2NO

> <PUBCHEM_MOLECULAR_WEIGHT>
308.2024

> <PUBCHEM_OPENEYE_CAN_SMILES>
CC1=CC=C(C=C1)CN(C2=CC=CC=C2Cl)C(=O)CCl

> <PUBCHEM_OPENEYE_ISO_SMILES>
CC1=CC=C(C=C1)CN(C2=CC=CC=C2Cl)C(=O)CCl

> <PUBCHEM_CACTVS_TPSA>
20.3

> <PUBCHEM_MONOISOTOPIC_WEIGHT>
307.053069

> <PUBCHEM_TOTAL_CHARGE>
0

> <PUBCHEM_HEAVY_ATOM_COUNT>
20

> <PUBCHEM_ATOM_DEF_STEREO_COUNT>
0

> <PUBCHEM_ATOM_UDEF_STEREO_COUNT>
0

> <PUBCHEM_BOND_DEF_STEREO_COUNT>
0

> <PUBCHEM_BOND_UDEF_STEREO_COUNT>
0

> <PUBCHEM_ISOTOPIC_ATOM_COUNT>
0

> <PUBCHEM_COMPONENT_COUNT>
1

> <PUBCHEM_CACTVS_TAUTO_COUNT>
1

> <PUBCHEM_COORDINATE_TYPE>
1
5
255

> <PUBCHEM_BONDANNOTATIONS>
11  12  8
11  13  8
14  17  8
15  18  8
17  20  8
18  20  8
6  8  8
6  9  8
7  14  8
7  15  8
8  12  8
9  13  8

$$$$
39444708
  -OEChem-06121304432D

 48 50  0     0  0  0  0  0  0999 V2000
    9.1671    3.2066    0.0000 O   0  0  0  0  0  0  0  0  0  0  0  0
    6.2781   -0.0573    0.0000 N   0  3  0  0  0  0  0  0  0  0  0  0
    4.6783   -3.7741    0.0000 N   0  0  0  0  0  0  0  0  0  0  0  0
    5.9674   -1.0079    0.0000 C   0  0  0  0  0  0  0  0  0  0  0  0
    4.9889   -1.2141    0.0000 C   0  0  0  0  0  0  0  0  0  0  0  0
    4.6783   -2.1646    0.0000 C   0  0  0  0  0  0  0  0  0  0  0  0
    6.5888    0.8932    0.0000 C   0  0  0  0  0  0  0  0  0  0  0  0
    3.7320   -2.4693    0.0000 C   0  0  0  0  0  0  0  0  0  0  0  0
    3.7320   -3.4693    0.0000 C   0  0  0  0  0  0  0  0  0  0  0  0
    7.5673    1.0994    0.0000 C   0  0  0  0  0  0  0  0  0  0  0  0
    5.2619   -2.9693    0.0000 C   0  0  0  0  0  0  0  0  0  0  0  0
    2.8660   -1.9693    0.0000 C   0  0  0  0  0  0  0  0  0  0  0  0
    7.8779    2.0499    0.0000 C   0  0  0  0  0  0  0  0  0  0  0  0
    2.8660   -3.9693    0.0000 C   0  0  0  0  0  0  0  0  0  0  0  0
    8.2351    0.3551    0.0000 C   0  0  0  0  0  0  0  0  0  0  0  0
    8.8564    2.2561    0.0000 C   0  0  0  0  0  0  0  0  0  0  0  0
    2.0000   -2.4693    0.0000 C   0  0  0  0  0  0  0  0  0  0  0  0
    2.0000   -3.4693    0.0000 C   0  0  0  0  0  0  0  0  0  0  0  0
    9.2136    0.5613    0.0000 C   0  0  0  0  0  0  0  0  0  0  0  0
    9.5243    1.5118    0.0000 C   0  0  0  0  0  0  0  0  0  0  0  0
   10.1456    3.4129    0.0000 C   0  0  0  0  0  0  0  0  0  0  0  0
   10.4563    4.3634    0.0000 C   0  0  0  0  0  0  0  0  0  0  0  0
   10.8134    2.6686    0.0000 C   0  0  0  0  0  0  0  0  0  0  0  0
    5.9880   -1.6275    0.0000 H   0  0  0  0  0  0  0  0  0  0  0  0
    6.5812   -1.0952    0.0000 H   0  0  0  0  0  0  0  0  0  0  0  0
    4.9684   -0.5944    0.0000 H   0  0  0  0  0  0  0  0  0  0  0  0
    4.3751   -1.1267    0.0000 H   0  0  0  0  0  0  0  0  0  0  0  0
    6.8674   -0.2500    0.0000 H   0  0  0  0  0  0  0  0  0  0  0  0
    5.6888    0.1353    0.0000 H   0  0  0  0  0  0  0  0  0  0  0  0
    6.5682    1.5128    0.0000 H   0  0  0  0  0  0  0  0  0  0  0  0
    5.9750    0.9805    0.0000 H   0  0  0  0  0  0  0  0  0  0  0  0
    5.8819   -2.9693    0.0000 H   0  0  0  0  0  0  0  0  0  0  0  0
    4.8709   -4.3634    0.0000 H   0  0  0  0  0  0  0  0  0  0  0  0
    2.8660   -1.3493    0.0000 H   0  0  0  0  0  0  0  0  0  0  0  0
    7.4639    2.5114    0.0000 H   0  0  0  0  0  0  0  0  0  0  0  0
    2.8660   -4.5893    0.0000 H   0  0  0  0  0  0  0  0  0  0  0  0
    8.0425   -0.2342    0.0000 H   0  0  0  0  0  0  0  0  0  0  0  0
    1.4631   -2.1593    0.0000 H   0  0  0  0  0  0  0  0  0  0  0  0
    1.4631   -3.7793    0.0000 H   0  0  0  0  0  0  0  0  0  0  0  0
    9.6277    0.0998    0.0000 H   0  0  0  0  0  0  0  0  0  0  0  0
   10.1310    1.6397    0.0000 H   0  0  0  0  0  0  0  0  0  0  0  0
    9.9530    2.8236    0.0000 H   0  0  0  0  0  0  0  0  0  0  0  0
   11.0456    4.1708    0.0000 H   0  0  0  0  0  0  0  0  0  0  0  0
   10.6489    4.9527    0.0000 H   0  0  0  0  0  0  0  0  0  0  0  0
   10.3520    2.2545    0.0000 H   0  0  0  0  0  0  0  0  0  0  0  0
   11.2275    2.2071    0.0000 H   0  0  0  0  0  0  0  0  0  0  0  0
   11.2749    3.0826    0.0000 H   0  0  0  0  0  0  0  0  0  0  0  0
    9.8669    4.5560    0.0000 H   0  0  0  0  0  0  0  0  0  0  0  0
  1 16  1  0  0  0  0
  1 21  1  0  0  0  0
  2  4  1  0  0  0  0
  2  7  1  0  0  0  0
  2 28  1  0  0  0  0
  2 29  1  0  0  0  0
  3  9  1  0  0  0  0
  3 11  1  0  0  0  0
  3 33  1  0  0  0  0
  4  5  1  0  0  0  0
  4 24  1  0  0  0  0
  4 25  1  0  0  0  0
  5  6  1  0  0  0  0
  5 26  1  0  0  0  0
  5 27  1  0  0  0  0
  6  8  1  0  0  0  0
  6 11  2  0  0  0  0
  7 10  1  0  0  0  0
  7 30  1  0  0  0  0
  7 31  1  0  0  0  0
  8  9  1  0  0  0  0
  8 12  2  0  0  0  0
  9 14  2  0  0  0  0
 10 13  2  0  0  0  0
 10 15  1  0  0  0  0
 11 32  1  0  0  0  0
 12 17  1  0  0  0  0
 12 34  1  0  0  0  0
 13 16  1  0  0  0  0
 13 35  1  0  0  0  0
 14 18  1  0  0  0  0
 14 36  1  0  0  0  0
 15 19  2  0  0  0  0
 15 37  1  0  0  0  0
 16 20  2  0  0  0  0
 17 18  2  0  0  0  0
 17 38  1  0  0  0  0
 18 39  1  0  0  0  0
 19 20  1  0  0  0  0
 19 40  1  0  0  0  0
 20 41  1  0  0  0  0
 21 22  1  0  0  0  0
 21 23  1  0  0  0  0
 21 42  1  0  0  0  0
 22 43  1  0  0  0  0
 22 44  1  0  0  0  0
 22 48  1  0  0  0  0
 23 45  1  0  0  0  0
 23 46  1  0  0  0  0
 23 47  1  0  0  0  0
M  CHG  1   2   1
M  END
> <PUBCHEM_COMPOUND_CID>
39444708

> <PUBCHEM_COMPOUND_CANONICALIZED>
1

> <PUBCHEM_CACTVS_COMPLEXITY>
347

> <PUBCHEM_CACTVS_HBOND_ACCEPTOR>
1

> <PUBCHEM_CACTVS_HBOND_DONOR>
2

> <PUBCHEM_CACTVS_ROTATABLE_BOND>
7

> <PUBCHEM_CACTVS_SUBSKEYS>
AAADceB7IAAAAAAAAAAAAAAAAAAAAWAAAAAwYAAAAAAAAFgB9AAAHgAQAAAADBzhngY+xvLJlACgAzRnRACCiCAxIiAI2aA+bJgMJuLEsZuGOCjk0BHI6AewwNAOgAABAAACAAAAAAIAAAQAAAAAAAAAAA==

> <PUBCHEM_IUPAC_OPENEYE_NAME>
2-(1H-indol-3-yl)ethyl-[(3-isopropoxyphenyl)methyl]ammonium

> <PUBCHEM_IUPAC_CAS_NAME>
2-(1H-indol-3-yl)ethyl-[(3-propan-2-yloxyphenyl)methyl]ammonium

> <PUBCHEM_IUPAC_NAME>
2-(1H-indol-3-yl)ethyl-[(3-propan-2-yloxyphenyl)methyl]azanium

> <PUBCHEM_IUPAC_SYSTEMATIC_NAME>
2-(1H-indol-3-yl)ethyl-[(3-propan-2-yloxyphenyl)methyl]azanium

> <PUBCHEM_IUPAC_TRADITIONAL_NAME>
2-(1H-indol-3-yl)ethyl-(3-isopropoxybenzyl)ammonium

> <PUBCHEM_IUPAC_INCHI>
InChI=1S/C20H24N2O/c1-15(2)23-18-7-5-6-16(12-18)13-21-11-10-17-14-22-20-9-4-3-8-19(17)20/h3-9,12,14-15,21-22H,10-11,13H2,1-2H3/p+1

> <PUBCHEM_IUPAC_INCHIKEY>
YCPZGJHYLXCWJU-UHFFFAOYSA-O

> <PUBCHEM_XLOGP3>
4.3

> <PUBCHEM_EXACT_MASS>
309.196688

> <PUBCHEM_MOLECULAR_FORMULA>
C20H25N2O+

> <PUBCHEM_MOLECULAR_WEIGHT>
309.4253

> <PUBCHEM_OPENEYE_CAN_SMILES>
CC(C)OC1=CC=CC(=C1)C[NH2+]CCC2=CNC3=CC=CC=C32

> <PUBCHEM_OPENEYE_ISO_SMILES>
CC(C)OC1=CC=CC(=C1)C[NH2+]CCC2=CNC3=CC=CC=C32

> <PUBCHEM_CACTVS_TPSA>
41.6

> <PUBCHEM_MONOISOTOPIC_WEIGHT>
309.196688

> <PUBCHEM_TOTAL_CHARGE>
1

> <PUBCHEM_HEAVY_ATOM_COUNT>
23

> <PUBCHEM_ATOM_DEF_STEREO_COUNT>
0

> <PUBCHEM_ATOM_UDEF_STEREO_COUNT>
0

> <PUBCHEM_BOND_DEF_STEREO_COUNT>
0

> <PUBCHEM_BOND_UDEF_STEREO_COUNT>
0

> <PUBCHEM_ISOTOPIC_ATOM_COUNT>
0

> <PUBCHEM_COMPONENT_COUNT>
1

> <PUBCHEM_CACTVS_TAUTO_COUNT>
1

> <PUBCHEM_COORDINATE_TYPE>
1
5
255

> <PUBCHEM_BONDANNOTATIONS>
10  13  8
10  15  8
12  17  8
13  16  8
14  18  8
15  19  8
16  20  8
17  18  8
19  20  8
3  11  8
3  9  8
6  11  8
6  8  8
8  12  8
8  9  8
9  14  8

$$$$
39444711
  -OEChem-06121304432D

 48 50  0     0  0  0  0  0  0999 V2000
   10.5028    2.1933    0.0000 O   0  0  0  0  0  0  0  0  0  0  0  0
    6.2781    0.4179    0.0000 N   0  3  0  0  0  0  0  0  0  0  0  0
    4.6783   -3.2988    0.0000 N   0  0  0  0  0  0  0  0  0  0  0  0
    5.9674   -0.5326    0.0000 C   0  0  0  0  0  0  0  0  0  0  0  0
    4.9889   -0.7388    0.0000 C   0  0  0  0  0  0  0  0  0  0  0  0
    4.6783   -1.6893    0.0000 C   0  0  0  0  0  0  0  0  0  0  0  0
    6.5888    1.3684    0.0000 C   0  0  0  0  0  0  0  0  0  0  0  0
    3.7320   -1.9941    0.0000 C   0  0  0  0  0  0  0  0  0  0  0  0
    3.7320   -2.9941    0.0000 C   0  0  0  0  0  0  0  0  0  0  0  0
    5.2619   -2.4941    0.0000 C   0  0  0  0  0  0  0  0  0  0  0  0
    7.5673    1.5747    0.0000 C   0  0  0  0  0  0  0  0  0  0  0  0
    2.8660   -1.4941    0.0000 C   0  0  0  0  0  0  0  0  0  0  0  0
    2.8660   -3.4941    0.0000 C   0  0  0  0  0  0  0  0  0  0  0  0
    8.2351    0.8304    0.0000 C   0  0  0  0  0  0  0  0  0  0  0  0
    7.8779    2.5252    0.0000 C   0  0  0  0  0  0  0  0  0  0  0  0
    2.0000   -1.9941    0.0000 C   0  0  0  0  0  0  0  0  0  0  0  0
    2.0000   -2.9941    0.0000 C   0  0  0  0  0  0  0  0  0  0  0  0
    9.5243    1.9871    0.0000 C   0  0  0  0  0  0  0  0  0  0  0  0
    9.2136    1.0366    0.0000 C   0  0  0  0  0  0  0  0  0  0  0  0
    8.8564    2.7314    0.0000 C   0  0  0  0  0  0  0  0  0  0  0  0
   10.8134    3.1438    0.0000 C   0  0  0  0  0  0  0  0  0  0  0  0
   11.7920    3.3500    0.0000 C   0  0  0  0  0  0  0  0  0  0  0  0
   10.1456    3.8881    0.0000 C   0  0  0  0  0  0  0  0  0  0  0  0
    5.9880   -1.1523    0.0000 H   0  0  0  0  0  0  0  0  0  0  0  0
    6.5812   -0.6200    0.0000 H   0  0  0  0  0  0  0  0  0  0  0  0
    4.9684   -0.1192    0.0000 H   0  0  0  0  0  0  0  0  0  0  0  0
    4.3751   -0.6515    0.0000 H   0  0  0  0  0  0  0  0  0  0  0  0
    6.8674    0.2253    0.0000 H   0  0  0  0  0  0  0  0  0  0  0  0
    5.6888    0.6105    0.0000 H   0  0  0  0  0  0  0  0  0  0  0  0
    6.5682    1.9881    0.0000 H   0  0  0  0  0  0  0  0  0  0  0  0
    5.9750    1.4558    0.0000 H   0  0  0  0  0  0  0  0  0  0  0  0
    5.8819   -2.4941    0.0000 H   0  0  0  0  0  0  0  0  0  0  0  0
    4.8709   -3.8881    0.0000 H   0  0  0  0  0  0  0  0  0  0  0  0
    2.8660   -0.8741    0.0000 H   0  0  0  0  0  0  0  0  0  0  0  0
    2.8660   -4.1141    0.0000 H   0  0  0  0  0  0  0  0  0  0  0  0
    8.0425    0.2410    0.0000 H   0  0  0  0  0  0  0  0  0  0  0  0
    7.4639    2.9866    0.0000 H   0  0  0  0  0  0  0  0  0  0  0  0
    1.4631   -1.6841    0.0000 H   0  0  0  0  0  0  0  0  0  0  0  0
    1.4631   -3.3041    0.0000 H   0  0  0  0  0  0  0  0  0  0  0  0
    9.6277    0.5751    0.0000 H   0  0  0  0  0  0  0  0  0  0  0  0
    9.0490    3.3207    0.0000 H   0  0  0  0  0  0  0  0  0  0  0  0
   11.2275    2.6824    0.0000 H   0  0  0  0  0  0  0  0  0  0  0  0
   11.9198    2.7434    0.0000 H   0  0  0  0  0  0  0  0  0  0  0  0
   12.3986    3.4779    0.0000 H   0  0  0  0  0  0  0  0  0  0  0  0
   10.6071    4.3022    0.0000 H   0  0  0  0  0  0  0  0  0  0  0  0
    9.7315    4.3496    0.0000 H   0  0  0  0  0  0  0  0  0  0  0  0
    9.6841    3.4741    0.0000 H   0  0  0  0  0  0  0  0  0  0  0  0
   11.6641    3.9567    0.0000 H   0  0  0  0  0  0  0  0  0  0  0  0
  1 18  1  0  0  0  0
  1 21  1  0  0  0  0
  2  4  1  0  0  0  0
  2  7  1  0  0  0  0
  2 28  1  0  0  0  0
  2 29  1  0  0  0  0
  3  9  1  0  0  0  0
  3 10  1  0  0  0  0
  3 33  1  0  0  0  0
  4  5  1  0  0  0  0
  4 24  1  0  0  0  0
  4 25  1  0  0  0  0
  5  6  1  0  0  0  0
  5 26  1  0  0  0  0
  5 27  1  0  0  0  0
  6  8  1  0  0  0  0
  6 10  2  0  0  0  0
  7 11  1  0  0  0  0
  7 30  1  0  0  0  0
  7 31  1  0  0  0  0
  8  9  1  0  0  0  0
  8 12  2  0  0  0  0
  9 13  2  0  0  0  0
 10 32  1  0  0  0  0
 11 14  2  0  0  0  0
 11 15  1  0  0  0  0
 12 16  1  0  0  0  0
 12 34  1  0  0  0  0
 13 17  1  0  0  0  0
 13 35  1  0  0  0  0
 14 19  1  0  0  0  0
 14 36  1  0  0  0  0
 15 20  2  0  0  0  0
 15 37  1  0  0  0  0
 16 17  2  0  0  0  0
 16 38  1  0  0  0  0
 17 39  1  0  0  0  0
 18 19  2  0  0  0  0
 18 20  1  0  0  0  0
 19 40  1  0  0  0  0
 20 41  1  0  0  0  0
 21 22  1  0  0  0  0
 21 23  1  0  0  0  0
 21 42  1  0  0  0  0
 22 43  1  0  0  0  0
 22 44  1  0  0  0  0
 22 48  1  0  0  0  0
 23 45  1  0  0  0  0
 23 46  1  0  0  0  0
 23 47  1  0  0  0  0
M  CHG  1   2   1
M  END
> <PUBCHEM_COMPOUND_CID>
39444711

> <PUBCHEM_COMPOUND_CANONICALIZED>
1

> <PUBCHEM_CACTVS_COMPLEXITY>
339

> <PUBCHEM_CACTVS_HBOND_ACCEPTOR>
1

> <PUBCHEM_CACTVS_HBOND_DONOR>
2

> <PUBCHEM_CACTVS_ROTATABLE_BOND>
7

> <PUBCHEM_CACTVS_SUBSKEYS>
AAADceB7IAAAAAAAAAAAAAAAAAAAAWAAAAAwYAAAAAAAAFgB9AAAHgAQAAAADBzhngY+xvLJlACgAzRnRACCiCAxIiAI2aA+bJgMJuLEsZuGOCjk0BHI6AeQ0MIOoAAAAAACAABAAAAAAAQAAAAAAAAAAA==

> <PUBCHEM_IUPAC_OPENEYE_NAME>
2-(1H-indol-3-yl)ethyl-[(4-isopropoxyphenyl)methyl]ammonium

> <PUBCHEM_IUPAC_CAS_NAME>
2-(1H-indol-3-yl)ethyl-[(4-propan-2-yloxyphenyl)methyl]ammonium

> <PUBCHEM_IUPAC_NAME>
2-(1H-indol-3-yl)ethyl-[(4-propan-2-yloxyphenyl)methyl]azanium

> <PUBCHEM_IUPAC_SYSTEMATIC_NAME>
2-(1H-indol-3-yl)ethyl-[(4-propan-2-yloxyphenyl)methyl]azanium

> <PUBCHEM_IUPAC_TRADITIONAL_NAME>
2-(1H-indol-3-yl)ethyl-(4-isopropoxybenzyl)ammonium

> <PUBCHEM_IUPAC_INCHI>
InChI=1S/C20H24N2O/c1-15(2)23-18-9-7-16(8-10-18)13-21-12-11-17-14-22-20-6-4-3-5-19(17)20/h3-10,14-15,21-22H,11-13H2,1-2H3/p+1

> <PUBCHEM_IUPAC_INCHIKEY>
SNQXQPFLCUSGIF-UHFFFAOYSA-O

> <PUBCHEM_XLOGP3>
4.3

> <PUBCHEM_EXACT_MASS>
309.196688

> <PUBCHEM_MOLECULAR_FORMULA>
C20H25N2O+

> <PUBCHEM_MOLECULAR_WEIGHT>
309.4253

> <PUBCHEM_OPENEYE_CAN_SMILES>
CC(C)OC1=CC=C(C=C1)C[NH2+]CCC2=CNC3=CC=CC=C32

> <PUBCHEM_OPENEYE_ISO_SMILES>
CC(C)OC1=CC=C(C=C1)C[NH2+]CCC2=CNC3=CC=CC=C32

> <PUBCHEM_CACTVS_TPSA>
41.6

> <PUBCHEM_MONOISOTOPIC_WEIGHT>
309.196688

> <PUBCHEM_TOTAL_CHARGE>
1

> <PUBCHEM_HEAVY_ATOM_COUNT>
23

> <PUBCHEM_ATOM_DEF_STEREO_COUNT>
0

> <PUBCHEM_ATOM_UDEF_STEREO_COUNT>
0

> <PUBCHEM_BOND_DEF_STEREO_COUNT>
0

> <PUBCHEM_BOND_UDEF_STEREO_COUNT>
0

> <PUBCHEM_ISOTOPIC_ATOM_COUNT>
0

> <PUBCHEM_COMPONENT_COUNT>
1

> <PUBCHEM_CACTVS_TAUTO_COUNT>
1

> <PUBCHEM_COORDINATE_TYPE>
1
5
255

> <PUBCHEM_BONDANNOTATIONS>
11  14  8
11  15  8
12  16  8
13  17  8
14  19  8
15  20  8
16  17  8
18  19  8
18  20  8
3  10  8
3  9  8
6  10  8
6  8  8
8  12  8
8  9  8
9  13  8

$$$$
