32589802
  -OEChem-03061302532D

 46 49  0     0  0  0  0  0  0999 V2000
    6.6353   -1.8150    0.0000 O   0  0  0  0  0  0  0  0  0  0  0  0
    6.2781   -0.1202    0.0000 N   0  0  0  0  0  0  0  0  0  0  0  0
    4.6783   -3.8369    0.0000 N   0  0  0  0  0  0  0  0  0  0  0  0
    7.2566    0.0861    0.0000 C   0  0  0  0  0  0  0  0  0  0  0  0
    8.2071   -0.2246    0.0000 C   0  0  0  0  0  0  0  0  0  0  0  0
    8.0009    0.7539    0.0000 C   0  0  0  0  0  0  0  0  0  0  0  0
    5.6103    0.6241    0.0000 C   0  0  0  0  0  0  0  0  0  0  0  0
    5.9674   -1.0707    0.0000 C   0  0  0  0  0  0  0  0  0  0  0  0
    4.9889   -1.2769    0.0000 C   0  0  0  0  0  0  0  0  0  0  0  0
    5.9209    1.5747    0.0000 C   0  0  0  0  0  0  0  0  0  0  0  0
    4.6783   -2.2274    0.0000 C   0  0  0  0  0  0  0  0  0  0  0  0
    3.7320   -2.5322    0.0000 C   0  0  0  0  0  0  0  0  0  0  0  0
    6.8994    1.7809    0.0000 C   0  0  0  0  0  0  0  0  0  0  0  0
    5.2531    2.3190    0.0000 C   0  0  0  0  0  0  0  0  0  0  0  0
    5.2619   -3.0322    0.0000 C   0  0  0  0  0  0  0  0  0  0  0  0
    3.7320   -3.5322    0.0000 C   0  0  0  0  0  0  0  0  0  0  0  0
    7.2101    2.7314    0.0000 C   0  0  0  0  0  0  0  0  0  0  0  0
    5.5637    3.2695    0.0000 C   0  0  0  0  0  0  0  0  0  0  0  0
    2.8660   -2.0322    0.0000 C   0  0  0  0  0  0  0  0  0  0  0  0
    6.5422    3.4757    0.0000 C   0  0  0  0  0  0  0  0  0  0  0  0
    2.8660   -4.0322    0.0000 C   0  0  0  0  0  0  0  0  0  0  0  0
    2.0000   -2.5322    0.0000 C   0  0  0  0  0  0  0  0  0  0  0  0
    2.0000   -3.5322    0.0000 C   0  0  0  0  0  0  0  0  0  0  0  0
    6.8529    4.4262    0.0000 C   0  0  0  0  0  0  0  0  0  0  0  0
    6.9761    0.6390    0.0000 H   0  0  0  0  0  0  0  0  0  0  0  0
    8.1198   -0.8384    0.0000 H   0  0  0  0  0  0  0  0  0  0  0  0
    8.8268   -0.2040    0.0000 H   0  0  0  0  0  0  0  0  0  0  0  0
    8.5762    0.9852    0.0000 H   0  0  0  0  0  0  0  0  0  0  0  0
    7.6733    1.2803    0.0000 H   0  0  0  0  0  0  0  0  0  0  0  0
    5.0633    0.9162    0.0000 H   0  0  0  0  0  0  0  0  0  0  0  0
    5.2277    0.1362    0.0000 H   0  0  0  0  0  0  0  0  0  0  0  0
    4.9684   -0.6572    0.0000 H   0  0  0  0  0  0  0  0  0  0  0  0
    4.3751   -1.1896    0.0000 H   0  0  0  0  0  0  0  0  0  0  0  0
    7.3135    1.3194    0.0000 H   0  0  0  0  0  0  0  0  0  0  0  0
    4.6464    2.1911    0.0000 H   0  0  0  0  0  0  0  0  0  0  0  0
    5.8819   -3.0322    0.0000 H   0  0  0  0  0  0  0  0  0  0  0  0
    4.8709   -4.4262    0.0000 H   0  0  0  0  0  0  0  0  0  0  0  0
    7.8168    2.8592    0.0000 H   0  0  0  0  0  0  0  0  0  0  0  0
    5.1497    3.7309    0.0000 H   0  0  0  0  0  0  0  0  0  0  0  0
    2.8660   -1.4122    0.0000 H   0  0  0  0  0  0  0  0  0  0  0  0
    2.8660   -4.6522    0.0000 H   0  0  0  0  0  0  0  0  0  0  0  0
    1.4631   -2.2222    0.0000 H   0  0  0  0  0  0  0  0  0  0  0  0
    1.4631   -3.8422    0.0000 H   0  0  0  0  0  0  0  0  0  0  0  0
    7.4422    4.2336    0.0000 H   0  0  0  0  0  0  0  0  0  0  0  0
    7.0455    5.0155    0.0000 H   0  0  0  0  0  0  0  0  0  0  0  0
    6.2636    4.6188    0.0000 H   0  0  0  0  0  0  0  0  0  0  0  0
  1  8  2  0  0  0  0
  2  4  1  0  0  0  0
  2  7  1  0  0  0  0
  2  8  1  0  0  0  0
  3 15  1  0  0  0  0
  3 16  1  0  0  0  0
  3 37  1  0  0  0  0
  4  5  1  0  0  0  0
  4  6  1  0  0  0  0
  4 25  1  0  0  0  0
  5  6  1  0  0  0  0
  5 26  1  0  0  0  0
  5 27  1  0  0  0  0
  6 28  1  0  0  0  0
  6 29  1  0  0  0  0
  7 10  1  0  0  0  0
  7 30  1  0  0  0  0
  7 31  1  0  0  0  0
  8  9  1  0  0  0  0
  9 11  1  0  0  0  0
  9 32  1  0  0  0  0
  9 33  1  0  0  0  0
 10 13  2  0  0  0  0
 10 14  1  0  0  0  0
 11 12  1  0  0  0  0
 11 15  2  0  0  0  0
 12 16  1  0  0  0  0
 12 19  2  0  0  0  0
 13 17  1  0  0  0  0
 13 34  1  0  0  0  0
 14 18  2  0  0  0  0
 14 35  1  0  0  0  0
 15 36  1  0  0  0  0
 16 21  2  0  0  0  0
 17 20  2  0  0  0  0
 17 38  1  0  0  0  0
 18 20  1  0  0  0  0
 18 39  1  0  0  0  0
 19 22  1  0  0  0  0
 19 40  1  0  0  0  0
 20 24  1  0  0  0  0
 21 23  1  0  0  0  0
 21 41  1  0  0  0  0
 22 23  2  0  0  0  0
 22 42  1  0  0  0  0
 23 43  1  0  0  0  0
 24 44  1  0  0  0  0
 24 45  1  0  0  0  0
 24 46  1  0  0  0  0
M  END
> <PUBCHEM_COMPOUND_CID>
32589802

> <PUBCHEM_COMPOUND_CANONICALIZED>
1

> <PUBCHEM_CACTVS_COMPLEXITY>
439

> <PUBCHEM_CACTVS_HBOND_ACCEPTOR>
1

> <PUBCHEM_CACTVS_HBOND_DONOR>
1

> <PUBCHEM_CACTVS_ROTATABLE_BOND>
5

> <PUBCHEM_CACTVS_SUBSKEYS>
AAADceB7IAAAAAAAAAAAAAAAGAAAAWAAAAAwYAAAAAAAAFgB9AAAHgAQAAAADCjBngQ+wPPJkACoAzV3VACCgCAxAiAI2aE4ZJgIIPLAlZGEIAhglgDIyAccicCewAAAAAACAACAAAAAAAQAAAAAAAAAAA==

> <PUBCHEM_IUPAC_OPENEYE_NAME>
N-cyclopropyl-2-(1H-indol-3-yl)-N-(p-tolylmethyl)acetamide

> <PUBCHEM_IUPAC_CAS_NAME>
N-cyclopropyl-2-(1H-indol-3-yl)-N-[(4-methylphenyl)methyl]acetamide

> <PUBCHEM_IUPAC_NAME>
N-cyclopropyl-2-(1H-indol-3-yl)-N-[(4-methylphenyl)methyl]acetamide

> <PUBCHEM_IUPAC_SYSTEMATIC_NAME>
N-cyclopropyl-2-(1H-indol-3-yl)-N-[(4-methylphenyl)methyl]ethanamide

> <PUBCHEM_IUPAC_TRADITIONAL_NAME>
N-cyclopropyl-2-(1H-indol-3-yl)-N-(4-methylbenzyl)acetamide

> <PUBCHEM_IUPAC_INCHI>
InChI=1S/C21H22N2O/c1-15-6-8-16(9-7-15)14-23(18-10-11-18)21(24)12-17-13-22-20-5-3-2-4-19(17)20/h2-9,13,18,22H,10-12,14H2,1H3

> <PUBCHEM_IUPAC_INCHIKEY>
ROJLPHDVTTXSCW-UHFFFAOYSA-N

> <PUBCHEM_XLOGP3>
3.8

> <PUBCHEM_EXACT_MASS>
318.173213

> <PUBCHEM_MOLECULAR_FORMULA>
C21H22N2O

> <PUBCHEM_MOLECULAR_WEIGHT>
318.41218

> <PUBCHEM_OPENEYE_CAN_SMILES>
CC1=CC=C(C=C1)CN(C2CC2)C(=O)CC3=CNC4=CC=CC=C43

> <PUBCHEM_OPENEYE_ISO_SMILES>
CC1=CC=C(C=C1)CN(C2CC2)C(=O)CC3=CNC4=CC=CC=C43

> <PUBCHEM_CACTVS_TPSA>
36.1

> <PUBCHEM_MONOISOTOPIC_WEIGHT>
318.173213

> <PUBCHEM_TOTAL_CHARGE>
0

> <PUBCHEM_HEAVY_ATOM_COUNT>
24

> <PUBCHEM_ATOM_DEF_STEREO_COUNT>
0

> <PUBCHEM_ATOM_UDEF_STEREO_COUNT>
0

> <PUBCHEM_BOND_DEF_STEREO_COUNT>
0

> <PUBCHEM_BOND_UDEF_STEREO_COUNT>
0

> <PUBCHEM_ISOTOPIC_ATOM_COUNT>
0

> <PUBCHEM_COMPONENT_COUNT>
1

> <PUBCHEM_CACTVS_TAUTO_COUNT>
1

> <PUBCHEM_COORDINATE_TYPE>
1
5
255

> <PUBCHEM_BONDANNOTATIONS>
10  13  8
10  14  8
11  12  8
11  15  8
12  16  8
12  19  8
13  17  8
14  18  8
16  21  8
17  20  8
18  20  8
19  22  8
21  23  8
22  23  8
3  15  8
3  16  8

$$$$
