41845309
  -OEChem-12041212002D

 52 55  0     0  0  0  0  0  0999 V2000
    9.0981    0.4619    0.0000 O   0  0  0  0  0  0  0  0  0  0  0  0
    6.5000   -2.0381    0.0000 N   0  3  0  0  0  0  0  0  0  0  0  0
    9.0981   -2.5381    0.0000 N   0  0  0  0  0  0  0  0  0  0  0  0
    8.2320   -1.0381    0.0000 N   0  0  0  0  0  0  0  0  0  0  0  0
    5.5000   -0.3060    0.0000 C   0  0  0  0  0  0  0  0  0  0  0  0
    6.5000   -0.3060    0.0000 C   0  0  0  0  0  0  0  0  0  0  0  0
    5.0000   -1.1720    0.0000 C   0  0  0  0  0  0  0  0  0  0  0  0
    7.0000   -1.1720    0.0000 C   0  0  0  0  0  0  0  0  0  0  0  0
    5.5000   -2.0381    0.0000 C   0  0  0  0  0  0  0  0  0  0  0  0
    5.0000    0.5600    0.0000 C   0  0  0  0  0  0  0  0  0  0  0  0
    7.3660   -2.5381    0.0000 C   0  0  0  0  0  0  0  0  0  0  0  0
    4.0000    0.5600    0.0000 C   0  0  0  0  0  0  0  0  0  0  0  0
    8.2320   -2.0381    0.0000 C   0  0  0  0  0  0  0  0  0  0  0  0
    3.5000    1.4260    0.0000 C   0  0  0  0  0  0  0  0  0  0  0  0
    9.9641   -2.0381    0.0000 C   0  0  0  0  0  0  0  0  0  0  0  0
    2.5000    1.4260    0.0000 C   0  0  0  0  0  0  0  0  0  0  0  0
    4.0000    2.2920    0.0000 C   0  0  0  0  0  0  0  0  0  0  0  0
    9.9641   -1.0381    0.0000 C   0  0  0  0  0  0  0  0  0  0  0  0
    9.0981   -0.5381    0.0000 C   0  0  0  0  0  0  0  0  0  0  0  0
    2.0000    2.2920    0.0000 C   0  0  0  0  0  0  0  0  0  0  0  0
    3.5000    3.1581    0.0000 C   0  0  0  0  0  0  0  0  0  0  0  0
   10.8580   -2.5727    0.0000 C   0  0  0  0  0  0  0  0  0  0  0  0
   10.8580   -0.5034    0.0000 C   0  0  0  0  0  0  0  0  0  0  0  0
    2.5000    3.1581    0.0000 C   0  0  0  0  0  0  0  0  0  0  0  0
   11.7641   -2.0589    0.0000 C   0  0  0  0  0  0  0  0  0  0  0  0
   11.7641   -1.0173    0.0000 C   0  0  0  0  0  0  0  0  0  0  0  0
    4.8800   -0.3060    0.0000 H   0  0  0  0  0  0  0  0  0  0  0  0
    6.5000   -3.0381    0.0000 H   0  0  0  0  0  0  0  0  0  0  0  0
    7.0826   -0.0940    0.0000 H   0  0  0  0  0  0  0  0  0  0  0  0
    6.3923    0.3046    0.0000 H   0  0  0  0  0  0  0  0  0  0  0  0
    4.5250   -0.7735    0.0000 H   0  0  0  0  0  0  0  0  0  0  0  0
    4.5250   -1.5706    0.0000 H   0  0  0  0  0  0  0  0  0  0  0  0
    7.4750   -1.5706    0.0000 H   0  0  0  0  0  0  0  0  0  0  0  0
    7.4750   -0.7735    0.0000 H   0  0  0  0  0  0  0  0  0  0  0  0
    4.9174   -2.2501    0.0000 H   0  0  0  0  0  0  0  0  0  0  0  0
    5.6077   -2.6487    0.0000 H   0  0  0  0  0  0  0  0  0  0  0  0
    5.5826    0.7721    0.0000 H   0  0  0  0  0  0  0  0  0  0  0  0
    4.8923    1.1706    0.0000 H   0  0  0  0  0  0  0  0  0  0  0  0
    6.9675   -3.0130    0.0000 H   0  0  0  0  0  0  0  0  0  0  0  0
    7.7646   -3.0130    0.0000 H   0  0  0  0  0  0  0  0  0  0  0  0
    3.4174    0.3479    0.0000 H   0  0  0  0  0  0  0  0  0  0  0  0
    4.1077   -0.0506    0.0000 H   0  0  0  0  0  0  0  0  0  0  0  0
    9.0981   -3.1581    0.0000 H   0  0  0  0  0  0  0  0  0  0  0  0
    2.1900    0.8891    0.0000 H   0  0  0  0  0  0  0  0  0  0  0  0
    4.6200    2.2920    0.0000 H   0  0  0  0  0  0  0  0  0  0  0  0
    1.3800    2.2920    0.0000 H   0  0  0  0  0  0  0  0  0  0  0  0
    3.8100    3.6950    0.0000 H   0  0  0  0  0  0  0  0  0  0  0  0
   10.8509   -3.1927    0.0000 H   0  0  0  0  0  0  0  0  0  0  0  0
   10.8509    0.1165    0.0000 H   0  0  0  0  0  0  0  0  0  0  0  0
    2.1900    3.6950    0.0000 H   0  0  0  0  0  0  0  0  0  0  0  0
   12.2998   -2.3710    0.0000 H   0  0  0  0  0  0  0  0  0  0  0  0
   12.2998   -0.7052    0.0000 H   0  0  0  0  0  0  0  0  0  0  0  0
  1 19  2  0  0  0  0
  2  8  1  0  0  0  0
  2  9  1  0  0  0  0
  2 11  1  0  0  0  0
  2 28  1  0  0  0  0
  3 13  1  0  0  0  0
  3 15  1  0  0  0  0
  3 43  1  0  0  0  0
  4 13  2  0  0  0  0
  4 19  1  0  0  0  0
  5  6  1  0  0  0  0
  5  7  1  0  0  0  0
  5 10  1  0  0  0  0
  5 27  1  0  0  0  0
  6  8  1  0  0  0  0
  6 29  1  0  0  0  0
  6 30  1  0  0  0  0
  7  9  1  0  0  0  0
  7 31  1  0  0  0  0
  7 32  1  0  0  0  0
  8 33  1  0  0  0  0
  8 34  1  0  0  0  0
  9 35  1  0  0  0  0
  9 36  1  0  0  0  0
 10 12  1  0  0  0  0
 10 37  1  0  0  0  0
 10 38  1  0  0  0  0
 11 13  1  0  0  0  0
 11 39  1  0  0  0  0
 11 40  1  0  0  0  0
 12 14  1  0  0  0  0
 12 41  1  0  0  0  0
 12 42  1  0  0  0  0
 14 16  2  0  0  0  0
 14 17  1  0  0  0  0
 15 18  1  0  0  0  0
 15 22  2  0  0  0  0
 16 20  1  0  0  0  0
 16 44  1  0  0  0  0
 17 21  2  0  0  0  0
 17 45  1  0  0  0  0
 18 19  1  0  0  0  0
 18 23  2  0  0  0  0
 20 24  2  0  0  0  0
 20 46  1  0  0  0  0
 21 24  1  0  0  0  0
 21 47  1  0  0  0  0
 22 25  1  0  0  0  0
 22 48  1  0  0  0  0
 23 26  1  0  0  0  0
 23 49  1  0  0  0  0
 24 50  1  0  0  0  0
 25 26  2  0  0  0  0
 25 51  1  0  0  0  0
 26 52  1  0  0  0  0
M  CHG  1   2   1
M  END
> <PUBCHEM_COMPOUND_CID>
41845309

> <PUBCHEM_COMPOUND_CANONICALIZED>
1

> <PUBCHEM_CACTVS_COMPLEXITY>
504

> <PUBCHEM_CACTVS_HBOND_ACCEPTOR>
1

> <PUBCHEM_CACTVS_HBOND_DONOR>
2

> <PUBCHEM_CACTVS_ROTATABLE_BOND>
5

> <PUBCHEM_CACTVS_SUBSKEYS>
AAADceB7IAAAAAAAAAAAAAAAAAAAAAAAAAA8YIEAAAAAAACBQAAAHgAQAAAADQjBmAQxwIPAAACoAidydACCAAElAgAJiIEYZMgIYDrA3ZGUIYhgkADIyccYiMCOAAAAAAACAAAAAAAAAAQAAAAAAAAAAA==

> <PUBCHEM_IUPAC_OPENEYE_NAME>
2-[[4-(2-phenylethyl)piperidin-1-ium-1-yl]methyl]-1H-quinazolin-4-one

> <PUBCHEM_IUPAC_CAS_NAME>
2-[[4-(2-phenylethyl)-1-piperidin-1-iumyl]methyl]-1H-quinazolin-4-one

> <PUBCHEM_IUPAC_NAME>
2-[[4-(2-phenylethyl)piperidin-1-ium-1-yl]methyl]-1H-quinazolin-4-one

> <PUBCHEM_IUPAC_SYSTEMATIC_NAME>
2-[[4-(2-phenylethyl)piperidin-1-ium-1-yl]methyl]-1H-quinazolin-4-one

> <PUBCHEM_IUPAC_TRADITIONAL_NAME>
2-[(4-phenethylpiperidin-1-ium-1-yl)methyl]-1H-quinazolin-4-one

> <PUBCHEM_IUPAC_INCHI>
InChI=1S/C22H25N3O/c26-22-19-8-4-5-9-20(19)23-21(24-22)16-25-14-12-18(13-15-25)11-10-17-6-2-1-3-7-17/h1-9,18H,10-16H2,(H,23,24,26)/p+1

> <PUBCHEM_IUPAC_INCHIKEY>
WYZMCTIIKSDILD-UHFFFAOYSA-O

> <PUBCHEM_XLOGP3>
4.5

> <PUBCHEM_EXACT_MASS>
348.207587

> <PUBCHEM_MOLECULAR_FORMULA>
C22H26N3O+

> <PUBCHEM_MOLECULAR_WEIGHT>
348.46134

> <PUBCHEM_OPENEYE_CAN_SMILES>
C1C[NH+](CCC1CCC2=CC=CC=C2)CC3=NC(=O)C4=CC=CC=C4N3

> <PUBCHEM_OPENEYE_ISO_SMILES>
C1C[NH+](CCC1CCC2=CC=CC=C2)CC3=NC(=O)C4=CC=CC=C4N3

> <PUBCHEM_CACTVS_TPSA>
45.9

> <PUBCHEM_MONOISOTOPIC_WEIGHT>
348.207587

> <PUBCHEM_TOTAL_CHARGE>
1

> <PUBCHEM_HEAVY_ATOM_COUNT>
26

> <PUBCHEM_ATOM_DEF_STEREO_COUNT>
0

> <PUBCHEM_ATOM_UDEF_STEREO_COUNT>
0

> <PUBCHEM_BOND_DEF_STEREO_COUNT>
0

> <PUBCHEM_BOND_UDEF_STEREO_COUNT>
0

> <PUBCHEM_ISOTOPIC_ATOM_COUNT>
0

> <PUBCHEM_COMPONENT_COUNT>
1

> <PUBCHEM_CACTVS_TAUTO_COUNT>
25

> <PUBCHEM_COORDINATE_TYPE>
1
5
255

> <PUBCHEM_BONDANNOTATIONS>
14  16  8
14  17  8
15  18  8
15  22  8
16  20  8
17  21  8
18  19  8
18  23  8
20  24  8
21  24  8
22  25  8
23  26  8
25  26  8
3  13  8
3  15  8
4  13  8
4  19  8

$$$$
