49678216
  -OEChem-12041212152D

 33 34  0     0  0  0  0  0  0999 V2000
    2.0000   -1.8512    0.0000 Cl  0  0  0  0  0  0  0  0  0  0  0  0
    5.4641   -0.8512    0.0000 O   0  0  0  0  0  0  0  0  0  0  0  0
    6.3301    2.6488    0.0000 N   0  0  0  0  0  0  0  0  0  0  0  0
    3.7320   -0.8512    0.0000 N   0  0  0  0  0  0  0  0  0  0  0  0
    5.4641    1.1488    0.0000 C   0  0  0  0  0  0  0  0  0  0  0  0
    5.4641    2.1488    0.0000 C   0  0  0  0  0  0  0  0  0  0  0  0
    4.5981    0.6488    0.0000 C   0  0  0  0  0  0  0  0  0  0  0  0
    4.5981   -0.3512    0.0000 C   0  0  0  0  0  0  0  0  0  0  0  0
    7.2437    2.2420    0.0000 C   0  0  0  0  0  0  0  0  0  0  0  0
    6.4347    3.6433    0.0000 C   0  0  0  0  0  0  0  0  0  0  0  0
    7.9128    2.9852    0.0000 C   0  0  0  0  0  0  0  0  0  0  0  0
    7.4128    3.8512    0.0000 C   0  0  0  0  0  0  0  0  0  0  0  0
    3.7320   -1.8512    0.0000 C   0  0  0  0  0  0  0  0  0  0  0  0
    2.8660   -2.3512    0.0000 C   0  0  0  0  0  0  0  0  0  0  0  0
    4.5981   -2.3512    0.0000 C   0  0  0  0  0  0  0  0  0  0  0  0
    2.8660   -3.3512    0.0000 C   0  0  0  0  0  0  0  0  0  0  0  0
    4.5981   -3.3512    0.0000 C   0  0  0  0  0  0  0  0  0  0  0  0
    3.7320   -3.8512    0.0000 C   0  0  0  0  0  0  0  0  0  0  0  0
    5.6762    0.5662    0.0000 H   0  0  0  0  0  0  0  0  0  0  0  0
    6.0747    1.2564    0.0000 H   0  0  0  0  0  0  0  0  0  0  0  0
    5.2520    2.7314    0.0000 H   0  0  0  0  0  0  0  0  0  0  0  0
    4.8535    2.0411    0.0000 H   0  0  0  0  0  0  0  0  0  0  0  0
    4.3860    1.2314    0.0000 H   0  0  0  0  0  0  0  0  0  0  0  0
    3.9875    0.5411    0.0000 H   0  0  0  0  0  0  0  0  0  0  0  0
    7.3726    1.6356    0.0000 H   0  0  0  0  0  0  0  0  0  0  0  0
    5.9739    4.0582    0.0000 H   0  0  0  0  0  0  0  0  0  0  0  0
    3.1951   -0.5412    0.0000 H   0  0  0  0  0  0  0  0  0  0  0  0
    8.5294    2.9204    0.0000 H   0  0  0  0  0  0  0  0  0  0  0  0
    7.6650    4.4176    0.0000 H   0  0  0  0  0  0  0  0  0  0  0  0
    5.1350   -2.0412    0.0000 H   0  0  0  0  0  0  0  0  0  0  0  0
    2.3291   -3.6612    0.0000 H   0  0  0  0  0  0  0  0  0  0  0  0
    5.1350   -3.6612    0.0000 H   0  0  0  0  0  0  0  0  0  0  0  0
    3.7320   -4.4712    0.0000 H   0  0  0  0  0  0  0  0  0  0  0  0
  1 14  1  0  0  0  0
  2  8  2  0  0  0  0
  3  6  1  0  0  0  0
  3  9  1  0  0  0  0
  3 10  1  0  0  0  0
  4  8  1  0  0  0  0
  4 13  1  0  0  0  0
  4 27  1  0  0  0  0
  5  6  1  0  0  0  0
  5  7  1  0  0  0  0
  5 19  1  0  0  0  0
  5 20  1  0  0  0  0
  6 21  1  0  0  0  0
  6 22  1  0  0  0  0
  7  8  1  0  0  0  0
  7 23  1  0  0  0  0
  7 24  1  0  0  0  0
  9 11  2  0  0  0  0
  9 25  1  0  0  0  0
 10 12  2  0  0  0  0
 10 26  1  0  0  0  0
 11 12  1  0  0  0  0
 11 28  1  0  0  0  0
 12 29  1  0  0  0  0
 13 14  1  0  0  0  0
 13 15  2  0  0  0  0
 14 16  2  0  0  0  0
 15 17  1  0  0  0  0
 15 30  1  0  0  0  0
 16 18  1  0  0  0  0
 16 31  1  0  0  0  0
 17 18  2  0  0  0  0
 17 32  1  0  0  0  0
 18 33  1  0  0  0  0
M  END
> <PUBCHEM_COMPOUND_CID>
49678216

> <PUBCHEM_COMPOUND_CANONICALIZED>
1

> <PUBCHEM_CACTVS_COMPLEXITY>
267

> <PUBCHEM_CACTVS_HBOND_ACCEPTOR>
1

> <PUBCHEM_CACTVS_HBOND_DONOR>
1

> <PUBCHEM_CACTVS_ROTATABLE_BOND>
5

> <PUBCHEM_CACTVS_SUBSKEYS>
AAADccBzIAAEAAAAAAAAAAAAAAAAAWAAAAAwAAAAAAAAAAABwAAAHgIQAAAACArBkiQ8wJPMEACoADV3VACCgCAxByAI2CE4ZpgIIPLBk5HEIAhglADIyAcUAAAAAAAAAAAAABAAAAAAAAAAIAAAAAAAAA==

> <PUBCHEM_IUPAC_OPENEYE_NAME>
N-(2-chlorophenyl)-4-pyrrol-1-yl-butanamide

> <PUBCHEM_IUPAC_CAS_NAME>
N-(2-chlorophenyl)-4-(1-pyrrolyl)butanamide

> <PUBCHEM_IUPAC_NAME>
N-(2-chlorophenyl)-4-pyrrol-1-ylbutanamide

> <PUBCHEM_IUPAC_SYSTEMATIC_NAME>
N-(2-chlorophenyl)-4-pyrrol-1-yl-butanamide

> <PUBCHEM_IUPAC_TRADITIONAL_NAME>
N-(2-chlorophenyl)-4-pyrrol-1-yl-butyramide

> <PUBCHEM_IUPAC_INCHI>
InChI=1S/C14H15ClN2O/c15-12-6-1-2-7-13(12)16-14(18)8-5-11-17-9-3-4-10-17/h1-4,6-7,9-10H,5,8,11H2,(H,16,18)

> <PUBCHEM_IUPAC_INCHIKEY>
PQECAJKYTCQDPM-UHFFFAOYSA-N

> <PUBCHEM_XLOGP3>
1.9

> <PUBCHEM_EXACT_MASS>
262.087291

> <PUBCHEM_MOLECULAR_FORMULA>
C14H15ClN2O

> <PUBCHEM_MOLECULAR_WEIGHT>
262.7347

> <PUBCHEM_OPENEYE_CAN_SMILES>
C1=CC=C(C(=C1)NC(=O)CCCN2C=CC=C2)Cl

> <PUBCHEM_OPENEYE_ISO_SMILES>
C1=CC=C(C(=C1)NC(=O)CCCN2C=CC=C2)Cl

> <PUBCHEM_CACTVS_TPSA>
34

> <PUBCHEM_MONOISOTOPIC_WEIGHT>
262.087291

> <PUBCHEM_TOTAL_CHARGE>
0

> <PUBCHEM_HEAVY_ATOM_COUNT>
18

> <PUBCHEM_ATOM_DEF_STEREO_COUNT>
0

> <PUBCHEM_ATOM_UDEF_STEREO_COUNT>
0

> <PUBCHEM_BOND_DEF_STEREO_COUNT>
0

> <PUBCHEM_BOND_UDEF_STEREO_COUNT>
0

> <PUBCHEM_ISOTOPIC_ATOM_COUNT>
0

> <PUBCHEM_COMPONENT_COUNT>
1

> <PUBCHEM_CACTVS_TAUTO_COUNT>
3

> <PUBCHEM_COORDINATE_TYPE>
1
5
255

> <PUBCHEM_BONDANNOTATIONS>
10  12  8
11  12  8
13  14  8
13  15  8
14  16  8
15  17  8
16  18  8
17  18  8
3  10  8
3  9  8
9  11  8

$$$$
49678220
  -OEChem-12041212152D

 36 37  0     0  0  0  0  0  0999 V2000
    2.0000   -3.8512    0.0000 Cl  0  0  0  0  0  0  0  0  0  0  0  0
    5.4641   -0.8512    0.0000 O   0  0  0  0  0  0  0  0  0  0  0  0
    6.3301    2.6488    0.0000 N   0  0  0  0  0  0  0  0  0  0  0  0
    3.7320   -0.8512    0.0000 N   0  0  0  0  0  0  0  0  0  0  0  0
    5.4641    1.1488    0.0000 C   0  0  0  0  0  0  0  0  0  0  0  0
    5.4641    2.1488    0.0000 C   0  0  0  0  0  0  0  0  0  0  0  0
    4.5981    0.6488    0.0000 C   0  0  0  0  0  0  0  0  0  0  0  0
    4.5981   -0.3512    0.0000 C   0  0  0  0  0  0  0  0  0  0  0  0
    7.2437    2.2420    0.0000 C   0  0  0  0  0  0  0  0  0  0  0  0
    6.4347    3.6433    0.0000 C   0  0  0  0  0  0  0  0  0  0  0  0
    3.7320   -1.8512    0.0000 C   0  0  0  0  0  0  0  0  0  0  0  0
    2.8660   -2.3512    0.0000 C   0  0  0  0  0  0  0  0  0  0  0  0
    7.9128    2.9852    0.0000 C   0  0  0  0  0  0  0  0  0  0  0  0
    7.4128    3.8512    0.0000 C   0  0  0  0  0  0  0  0  0  0  0  0
    4.5981   -2.3512    0.0000 C   0  0  0  0  0  0  0  0  0  0  0  0
    2.8660   -3.3512    0.0000 C   0  0  0  0  0  0  0  0  0  0  0  0
    2.0000   -1.8512    0.0000 C   0  0  0  0  0  0  0  0  0  0  0  0
    4.5981   -3.3512    0.0000 C   0  0  0  0  0  0  0  0  0  0  0  0
    3.7320   -3.8512    0.0000 C   0  0  0  0  0  0  0  0  0  0  0  0
    5.6762    0.5662    0.0000 H   0  0  0  0  0  0  0  0  0  0  0  0
    6.0747    1.2564    0.0000 H   0  0  0  0  0  0  0  0  0  0  0  0
    5.2520    2.7314    0.0000 H   0  0  0  0  0  0  0  0  0  0  0  0
    4.8535    2.0411    0.0000 H   0  0  0  0  0  0  0  0  0  0  0  0
    4.3860    1.2314    0.0000 H   0  0  0  0  0  0  0  0  0  0  0  0
    3.9875    0.5411    0.0000 H   0  0  0  0  0  0  0  0  0  0  0  0
    5.9739    4.0582    0.0000 H   0  0  0  0  0  0  0  0  0  0  0  0
    7.3726    1.6356    0.0000 H   0  0  0  0  0  0  0  0  0  0  0  0
    3.1951   -0.5412    0.0000 H   0  0  0  0  0  0  0  0  0  0  0  0
    7.6650    4.4176    0.0000 H   0  0  0  0  0  0  0  0  0  0  0  0
    8.5294    2.9204    0.0000 H   0  0  0  0  0  0  0  0  0  0  0  0
    5.1350   -2.0412    0.0000 H   0  0  0  0  0  0  0  0  0  0  0  0
    2.3100   -1.3143    0.0000 H   0  0  0  0  0  0  0  0  0  0  0  0
    1.4631   -1.5412    0.0000 H   0  0  0  0  0  0  0  0  0  0  0  0
    1.6900   -2.3882    0.0000 H   0  0  0  0  0  0  0  0  0  0  0  0
    5.1350   -3.6612    0.0000 H   0  0  0  0  0  0  0  0  0  0  0  0
    3.7320   -4.4712    0.0000 H   0  0  0  0  0  0  0  0  0  0  0  0
  1 16  1  0  0  0  0
  2  8  2  0  0  0  0
  3  6  1  0  0  0  0
  3  9  1  0  0  0  0
  3 10  1  0  0  0  0
  4  8  1  0  0  0  0
  4 11  1  0  0  0  0
  4 28  1  0  0  0  0
  5  6  1  0  0  0  0
  5  7  1  0  0  0  0
  5 20  1  0  0  0  0
  5 21  1  0  0  0  0
  6 22  1  0  0  0  0
  6 23  1  0  0  0  0
  7  8  1  0  0  0  0
  7 24  1  0  0  0  0
  7 25  1  0  0  0  0
  9 13  2  0  0  0  0
  9 27  1  0  0  0  0
 10 14  2  0  0  0  0
 10 26  1  0  0  0  0
 11 12  2  0  0  0  0
 11 15  1  0  0  0  0
 12 16  1  0  0  0  0
 12 17  1  0  0  0  0
 13 14  1  0  0  0  0
 13 30  1  0  0  0  0
 14 29  1  0  0  0  0
 15 18  2  0  0  0  0
 15 31  1  0  0  0  0
 16 19  2  0  0  0  0
 17 32  1  0  0  0  0
 17 33  1  0  0  0  0
 17 34  1  0  0  0  0
 18 19  1  0  0  0  0
 18 35  1  0  0  0  0
 19 36  1  0  0  0  0
M  END
> <PUBCHEM_COMPOUND_CID>
49678220

> <PUBCHEM_COMPOUND_CANONICALIZED>
1

> <PUBCHEM_CACTVS_COMPLEXITY>
292

> <PUBCHEM_CACTVS_HBOND_ACCEPTOR>
1

> <PUBCHEM_CACTVS_HBOND_DONOR>
1

> <PUBCHEM_CACTVS_ROTATABLE_BOND>
5

> <PUBCHEM_CACTVS_SUBSKEYS>
AAADceBzIAAEAAAAAAAAAAAAAAAAAWAAAAAwAAAAAAAAAAABwAAAHgIQAAAADArBmiQ+wJPMEACoAjV3VACCgCAxByAI2CE4ZpgIIPLBk5GEIAhglADIyAcUgAAOAAAAAAIDAAAAAAAABAYAAAAAAAAAAA==

> <PUBCHEM_IUPAC_OPENEYE_NAME>
N-(3-chloro-2-methyl-phenyl)-4-pyrrol-1-yl-butanamide

> <PUBCHEM_IUPAC_CAS_NAME>
N-(3-chloro-2-methylphenyl)-4-(1-pyrrolyl)butanamide

> <PUBCHEM_IUPAC_NAME>
N-(3-chloro-2-methylphenyl)-4-pyrrol-1-ylbutanamide

> <PUBCHEM_IUPAC_SYSTEMATIC_NAME>
N-(3-chloranyl-2-methyl-phenyl)-4-pyrrol-1-yl-butanamide

> <PUBCHEM_IUPAC_TRADITIONAL_NAME>
N-(3-chloro-2-methyl-phenyl)-4-pyrrol-1-yl-butyramide

> <PUBCHEM_IUPAC_INCHI>
InChI=1S/C15H17ClN2O/c1-12-13(16)6-4-7-14(12)17-15(19)8-5-11-18-9-2-3-10-18/h2-4,6-7,9-10H,5,8,11H2,1H3,(H,17,19)

> <PUBCHEM_IUPAC_INCHIKEY>
XUHXMXIRAHYCDI-UHFFFAOYSA-N

> <PUBCHEM_XLOGP3>
2.5

> <PUBCHEM_EXACT_MASS>
276.102941

> <PUBCHEM_MOLECULAR_FORMULA>
C15H17ClN2O

> <PUBCHEM_MOLECULAR_WEIGHT>
276.76128

> <PUBCHEM_OPENEYE_CAN_SMILES>
CC1=C(C=CC=C1Cl)NC(=O)CCCN2C=CC=C2

> <PUBCHEM_OPENEYE_ISO_SMILES>
CC1=C(C=CC=C1Cl)NC(=O)CCCN2C=CC=C2

> <PUBCHEM_CACTVS_TPSA>
34

> <PUBCHEM_MONOISOTOPIC_WEIGHT>
276.102941

> <PUBCHEM_TOTAL_CHARGE>
0

> <PUBCHEM_HEAVY_ATOM_COUNT>
19

> <PUBCHEM_ATOM_DEF_STEREO_COUNT>
0

> <PUBCHEM_ATOM_UDEF_STEREO_COUNT>
0

> <PUBCHEM_BOND_DEF_STEREO_COUNT>
0

> <PUBCHEM_BOND_UDEF_STEREO_COUNT>
0

> <PUBCHEM_ISOTOPIC_ATOM_COUNT>
0

> <PUBCHEM_COMPONENT_COUNT>
1

> <PUBCHEM_CACTVS_TAUTO_COUNT>
3

> <PUBCHEM_COORDINATE_TYPE>
1
5
255

> <PUBCHEM_BONDANNOTATIONS>
10  14  8
11  12  8
11  15  8
12  16  8
13  14  8
15  18  8
16  19  8
18  19  8
3  10  8
3  9  8
9  13  8

$$$$
